IN MOF t= 1000.00000 step= 1000000
_cell_length_a  50.947199999999995
_cell_length_b  50.947199999999995
_cell_length_c  56.019
_cell_angle_alpha 90.0
_cell_angle_beta  90.0
_cell_angle_gamma 90.0
_space_group_name_H-M_alt    'P 1'
space_group_IT_number      1  
 
loop_ 
    _atom_site_label 
    _atom_site_occupancy 
    _atom_site_fract_x 
    _atom_site_fract_y 
    _atom_site_fract_z 
    _atom_site_adp_type 
    _atom_site_U_iso_or_equiv 
    _atom_site_type_symbol 
   _atom_site_charge
O 1.0  		0.012954588279630651 		0.4176873311977891  0.217604741248505 		Uiso   ? 		O 		-0.62091
O 1.0  		0.51523930657622 		0.9172241065259721  0.21796176297327696 		Uiso   ? 		O 		-0.62091
O 1.0  		0.2683170027008354 		0.16291376169838578  0.20975026330352203 		Uiso   ? 		O 		-0.62091
O 1.0  		0.7651058350606118 		0.6681427046039822  0.21403452400078546 		Uiso   ? 		O 		-0.62091
O 1.0  		0.7682463413102193 		0.16291376169838578  0.21135686106499582 		Uiso   ? 		O 		-0.62091
O 1.0  		0.5148467432950192 		0.41258400854217697  0.21207090451453972 		Uiso   ? 		O 		-0.62091
O 1.0  		0.26498021481062745 		0.6677501413227813  0.2092147307163641 		Uiso   ? 		O 		-0.62091
O 1.0  		0.02021700898184782 		0.9129059104327618  0.2108213284778379 		Uiso   ? 		O 		-0.62091
O 1.0  		0.015113686326235764 		0.4167059229947868  0.5219657616165944 		Uiso   ? 		O 		-0.62119
O 1.0  		0.517790967904026 		0.9191869229319767  0.5212517181670505 		Uiso   ? 		O 		-0.62119
O 1.0  		0.2692984109038377 		0.16409145154198856  0.5191095878184188 		Uiso   ? 		O 		-0.62119
O 1.0  		0.7651058350606118 		0.6667687331197789  0.5207161855798925 		Uiso   ? 		O 		-0.62119
O 1.0  		0.7660872432636141 		0.1662505495885937  0.5232153376532962 		Uiso   ? 		O 		-0.62119
O 1.0  		0.5146504616544187 		0.4151356698699831  0.5232153376532962 		Uiso   ? 		O 		-0.62119
O 1.0  		0.2700835374662395 		0.6657873249167766  0.5187525660936468 		Uiso   ? 		O 		-0.62119
O 1.0  		0.01491740468563527 		0.9184017963695749  0.5214302290294365 		Uiso   ? 		O 		-0.62119
O 1.0  		0.01923560077884553 		0.4188650210413919  0.8311465752691051 		Uiso   ? 		O 		-0.94014
O 1.0  		0.5156318698574209 		0.92056089441618  0.8295399775076314 		Uiso   ? 		O 		-0.94014
O 1.0  		0.26753187613843354 		0.16821336599459832  0.8304325318195613 		Uiso   ? 		O 		-0.94014
O 1.0  		0.7690314678726211 		0.6683389862445827  0.8286474231957016 		Uiso   ? 		O 		-0.94014
O 1.0  		0.7692277495132216 		0.17135387224420578  0.8315035969938772 		Uiso   ? 		O 		-0.94014
O 1.0  		0.5175946862634258 		0.41807989447899  0.832039129581035 		Uiso   ? 		O 		-0.94014
O 1.0  		0.26183970856102 		0.6687315495257836  0.8293614666452453 		Uiso   ? 		O 		-0.94014
O 1.0  		0.01648765781043899 		0.9162426983229698  0.8309680644067192 		Uiso   ? 		O 		-0.94014
O 1.0  		0.8510771936436154 		0.2696909741850387  0.1906496010282226 		Uiso   ? 		O 		-0.63724
O 1.0  		0.3521292632372338 		0.7678537780290183  0.19029257930345064 		Uiso   ? 		O 		-0.63724
O 1.0  		0.10481439608064821 		0.01845047421644369  0.18797193809243293 		Uiso   ? 		O 		-0.63724
O 1.0  		0.5998366936750205 		0.518576094466428  0.19172066620253844 		Uiso   ? 		O 		-0.63724
O 1.0  		0.6012106651592237 		0.018646755857044155  0.1911851336153805 		Uiso   ? 		O 		-0.63724
O 1.0  		0.34938132026882734 		0.27126122730984237  0.1918991770649244 		Uiso   ? 		O 		-0.63724
O 1.0  		0.09872966522203377 		0.518576094466428  0.19082811189060855 		Uiso   ? 		O 		-0.63724
O 1.0  		0.850488348721814 		0.7711905659192262  0.19082811189060855 		Uiso   ? 		O 		-0.63724
O 1.0  		0.8489180955970104 		0.2698872558256391  0.5032221210660669 		Uiso   ? 		O 		-0.63961
O 1.0  		0.34977388355002825 		0.7735459456064318  0.502329566754137 		Uiso   ? 		O 		-0.63961
O 1.0  		0.1020664531122417 		0.019039319138245088  0.4998304146807333 		Uiso   ? 		O 		-0.63961
O 1.0  		0.5974813139878149 		0.5225017272784374  0.5064353165890145 		Uiso   ? 		O 		-0.63961
O 1.0  		0.6012106651592237 		0.0245352050750581  0.5037576536532249 		Uiso   ? 		O 		-0.63961
O 1.0  		0.34898875698762644 		0.27027981910684  0.5034006319284529 		Uiso   ? 		O 		-0.63961
O 1.0  		0.09696313045662959 		0.5213240374348346  0.5010799907174351 		Uiso   ? 		O 		-0.63961
O 1.0  		0.8495069405188117 		0.7711905659192262  0.49965190381834734 		Uiso   ? 		O 		-0.63961
O 1.0  		0.850880912003015 		0.2781310847308586  0.8057980328102966 		Uiso   ? 		O 		-0.92410
O 1.0  		0.34741850386282264 		0.7743310721688337  0.8077616522965424 		Uiso   ? 		O 		-0.92410
O 1.0  		0.09853338358143333 		0.025909176559261355  0.8074046305717703 		Uiso   ? 		O 		-0.92410
O 1.0  		0.5980701589096163 		0.5248571069656429  0.8056195219479105 		Uiso   ? 		O 		-0.92410
O 1.0  		0.599247848753219 		0.023553796872055777  0.8052625002231386 		Uiso   ? 		O 		-0.92410
O 1.0  		0.34898875698762644 		0.27734595816845675  0.809903782645174 		Uiso   ? 		O 		-0.92410
O 1.0  		0.10245901639344261 		0.5283901764964513  0.8074046305717703 		Uiso   ? 		O 		-0.92410
O 1.0  		0.8483292506752089 		0.7731533823252309  0.8056195219479105 		Uiso   ? 		O 		-0.92410
O 1.0  		0.9831747377677282 		0.09519659569122543  0.16994234099144934 		Uiso   ? 		O 		-0.92223
O 1.0  		0.47794579486213173 		0.5933593995352051  0.16833574322997555 		Uiso   ? 		O 		-0.92223
O 1.0  		0.2306309277055461 		0.8467589975504052  0.16833574322997555 		Uiso   ? 		O 		-0.92223
O 1.0  		0.730952829596131 		0.34604453237861943  0.165122547707028 		Uiso   ? 		O 		-0.92223
O 1.0  		0.7307565479555305 		0.8465627159098047  0.16619361288134385 		Uiso   ? 		O 		-0.92223
O 1.0  		0.4818714276741411 		0.09696313045662962  0.16922829754190544 		Uiso   ? 		O 		-0.92223
O 1.0  		0.2278829847371396 		0.3462408140192199  0.17226298220246702 		Uiso   ? 		O 		-0.92223
O 1.0  		0.9776788518309152 		0.596696187425413  0.16690765633088775 		Uiso   ? 		O 		-0.92223
O 1.0  		0.9843524276113309 		0.09735569373783054  0.4719827201485211 		Uiso   ? 		O 		-0.65313
O 1.0  		0.4795160479869355 		0.5982664405502167  0.47287527446045097 		Uiso   ? 		O 		-0.65313
O 1.0  		0.22847182965894097 		0.8479366873940081  0.4700191006622753 		Uiso   ? 		O 		-0.65313
O 1.0  		0.7293825764713272 		0.3474185038628227  0.4709116549742052 		Uiso   ? 		O 		-0.65313
O 1.0  		0.7270271967841216 		0.8481329690346083  0.47055463324943325 		Uiso   ? 		O 		-0.65313
O 1.0  		0.4828528358771434 		0.09833710194083287  0.4716256984237491 		Uiso   ? 		O 		-0.65313
O 1.0  		0.23161233590854843 		0.34898875698762644  0.4746603830843107 		Uiso   ? 		O 		-0.65313
O 1.0  		0.978856541674518 		0.5986590038314177  0.47376782877238083 		Uiso   ? 		O 		-0.65313
O 1.0  		0.9798379498775203 		0.09794453865963194  0.7788428925900143 		Uiso   ? 		O 		-0.65640
O 1.0  		0.48030117454933735 		0.5998366936750205  0.7820560881129618 		Uiso   ? 		O 		-0.65640
O 1.0  		0.23043464606494563 		0.8500957854406131  0.7813420446634177 		Uiso   ? 		O 		-0.65640
O 1.0  		0.7297751397525282 		0.35173669995603296  0.7833056641496635 		Uiso   ? 		O 		-0.65640
O 1.0  		0.7297751397525282 		0.8512734752842158  0.7850907727735232 		Uiso   ? 		O 		-0.65640
O 1.0  		0.4820677093147416 		0.10128132654983985  0.7850907727735232 		Uiso   ? 		O 		-0.65640
O 1.0  		0.2335751523145531 		0.3501664468312292  0.7827701315625056 		Uiso   ? 		O 		-0.65640
O 1.0  		0.9802305131587212 		0.6012106651592237  0.7836626858744354 		Uiso   ? 		O 		-0.65640
O 1.0  		0.16978361911940204 		0.2347528421581559  0.14352273335832488 		Uiso   ? 		O 		-0.83141
O 1.0  		0.6675538596821807 		0.7297751397525282  0.14209464645923706 		Uiso   ? 		O 		-0.83141
O 1.0  		0.4222018089315997 		0.9831747377677282  0.1419161355968511 		Uiso   ? 		O 		-0.83141
O 1.0  		0.9189906412913763 		0.48246027259594254  0.13995251611060536 		Uiso   ? 		O 		-0.83141
O 1.0  		0.9201683311349789 		0.984744990892532  0.1410235812849212 		Uiso   ? 		O 		-0.83141
O 1.0  		0.6691241128069845 		0.23337887067395266  0.14495082025741268 		Uiso   ? 		O 		-0.83141
O 1.0  		0.4159207964323849 		0.48049745618993783  0.14495082025741268 		Uiso   ? 		O 		-0.83141
O 1.0  		0.1646802964637899 		0.7307565479555305  0.14280868990878096 		Uiso   ? 		O 		-0.83141
O 1.0  		0.16683939451039506 		0.23691194020476103  0.45555972080901125 		Uiso   ? 		O 		-0.62568
O 1.0  		0.6663761698385781 		0.7372338420953458  0.45341759046037955 		Uiso   ? 		O 		-0.62568
O 1.0  		0.4204352741661955 		0.9859226807361346  0.4528820578732216 		Uiso   ? 		O 		-0.62568
O 1.0  		0.9197757678537781 		0.482263990955342  0.45073992752458986 		Uiso   ? 		O 		-0.62568
O 1.0  		0.9187943596507756 		0.9819970479241255  0.4521680144236777 		Uiso   ? 		O 		-0.62568
O 1.0  		0.6710869292129892 		0.2365193769235601  0.4539531230475375 		Uiso   ? 		O 		-0.62568
O 1.0  		0.41611707807298537 		0.485208215564349  0.4516324818365198 		Uiso   ? 		O 		-0.62568
O 1.0  		0.16762452107279688 		0.7337007725645375  0.4525250361484497 		Uiso   ? 		O 		-0.62568
O 1.0  		0.17017618240060295 		0.23965988317316755  0.7624198932505043 		Uiso   ? 		O 		-0.63853
O 1.0  		0.6667687331197789 		0.7413557565479556  0.7640264910119782 		Uiso   ? 		O 		-0.63853
O 1.0  		0.41984642924439414 		0.9959330444067584  0.7599207411771006 		Uiso   ? 		O 		-0.63853
O 1.0  		0.9229162741033855 		0.490704101501162  0.7599207411771006 		Uiso   ? 		O 		-0.63853
O 1.0  		0.91643897996357 		0.9923999748759501  0.7649190453239081 		Uiso   ? 		O 		-0.63853
O 1.0  		0.6685352678851831 		0.24221154450097357  0.7624198932505043 		Uiso   ? 		O 		-0.63853
O 1.0  		0.4204352741661955 		0.4887412850951574  0.7590281868651707 		Uiso   ? 		O 		-0.63853
O 1.0  		0.1686059292757992 		0.7405706299855538  0.7608132954890304 		Uiso   ? 		O 		-0.63853
O 1.0  		0.061828716789146386 		0.41042491049557195  0.2038594048447848 		Uiso   ? 		O 		-0.64773
O 1.0  		0.5627394636015325 		0.9081951510583506  0.20118174190899518 		Uiso   ? 		O 		-0.64773
O 1.0  		0.3152283148043465 		0.15879184724577605  0.19350577482639822 		Uiso   ? 		O 		-0.64773
O 1.0  		0.8124097104453238 		0.6600951573393632  0.1981470572484336 		Uiso   ? 		O 		-0.64773
O 1.0  		0.8149613717731299 		0.1556513409961686  0.19421981827594212 		Uiso   ? 		O 		-0.64773
O 1.0  		0.5631320268827336 		0.40767696752716537  0.1967189703493458 		Uiso   ? 		O 		-0.64773
O 1.0  		0.312087808554739 		0.6593100307769613  0.19493386172548602 		Uiso   ? 		O 		-0.64773
O 1.0  		0.06791344764776076 		0.9072137428553483  0.19439832913832808 		Uiso   ? 		O 		-0.64773
O 1.0  		0.06379153319515103 		0.41042491049557195  0.5051857405523127 		Uiso   ? 		O 		-0.64306
O 1.0  		0.5623469003203316 		0.9127096287921614  0.5017940341669791 		Uiso   ? 		O 		-0.64306
O 1.0  		0.3158171597261479 		0.15938069216757744  0.5009014798550492 		Uiso   ? 		O 		-0.64306
O 1.0  		0.8112320206017211 		0.657936059292758  0.5019725450293651 		Uiso   ? 		O 		-0.64306
O 1.0  		0.8155502166949313 		0.15859556560517557  0.5057212731394706 		Uiso   ? 		O 		-0.64306
O 1.0  		0.5615617737579298 		0.4110137554173733  0.5055427622770846 		Uiso   ? 		O 		-0.64306
O 1.0  		0.3164060046479492 		0.6610765655423655  0.4992948820935755 		Uiso   ? 		O 		-0.64306
O 1.0  		0.06182871678914636 		0.9089802776207526  0.5016155233045931 		Uiso   ? 		O 		-0.64306
O 1.0  		0.0673246027259594 		0.41258400854217697  0.8132954890305075 		Uiso   ? 		O 		-0.65264
O 1.0  		0.5619543370391307 		0.9125133471515608  0.810617826094718 		Uiso   ? 		O 		-0.65264
O 1.0  		0.3144431882419446 		0.16036210037057974  0.8136525107552794 		Uiso   ? 		O 		-0.65264
O 1.0  		0.8124097104453238 		0.6595063124175617  0.8049054784983667 		Uiso   ? 		O 		-0.65264
O 1.0  		0.8139799635701276 		0.16134350857358207  0.8102608043699459 		Uiso   ? 		O 		-0.65264
O 1.0  		0.5631320268827336 		0.41081747377677286  0.8124029347185777 		Uiso   ? 		O 		-0.65264
O 1.0  		0.31071383707053574 		0.6581323409333585  0.8127599564433496 		Uiso   ? 		O 		-0.65264
O 1.0  		0.0616324351485459 		0.9103542491049558  0.8118674021314197 		Uiso   ? 		O 		-0.65264
O 1.0  		0.847151560831606 		0.3067882042585265  0.15851764579874686 		Uiso   ? 		O 		-0.61572
O 1.0  		0.3460445323786194 		0.8106431756799196  0.16619361288134385 		Uiso   ? 		O 		-0.61572
O 1.0  		0.09598172225362729 		0.058688210539538974  0.1588746675235188 		Uiso   ? 		O 		-0.61572
O 1.0  		0.5925742729728033 		0.5605803655549275  0.1635159499455542 		Uiso   ? 		O 		-0.61572
O 1.0  		0.5945370893788079 		0.0596696187425413  0.16333743908316822 		Uiso   ? 		O 		-0.61572
O 1.0  		0.3419226179260097 		0.3099287105081339  0.16190935218408042 		Uiso   ? 		O 		-0.61572
O 1.0  		0.09401890584762261 		0.5594026757113247  0.16244488477123833 		Uiso   ? 		O 		-0.61572
O 1.0  		0.845385026066202 		0.8106431756799196  0.16119530873453652 		Uiso   ? 		O 		-0.61572
O 1.0  		0.8416556748947931 		0.3107138370705358  0.4741248504971528 		Uiso   ? 		O 		-0.61961
O 1.0  		0.34113749136360777 		0.8122134288047234  0.4712686766989772 		Uiso   ? 		O 		-0.61961
O 1.0  		0.09774825701903148 		0.0596696187425413  0.472696763598065 		Uiso   ? 		O 		-0.61961
O 1.0  		0.5929668362540041 		0.5615617737579298  0.47644549170817047 		Uiso   ? 		O 		-0.61961
O 1.0  		0.594144526097607 		0.06516550467935432  0.47287527446045097 		Uiso   ? 		O 		-0.61961
O 1.0  		0.34290402612901205 		0.31051755542993537  0.4748388939466967 		Uiso   ? 		O 		-0.61961
O 1.0  		0.09087839959801518 		0.5615617737579298  0.47216123101090707 		Uiso   ? 		O 		-0.61961
O 1.0  		0.8418519565353935 		0.8096617674769173  0.47180420928613503 		Uiso   ? 		O 		-0.61961
O 1.0  		0.8426370830977954 		0.3148357515231456  0.7759867187918386 		Uiso   ? 		O 		-0.64157
O 1.0  		0.34133377300420825 		0.8116245838829219  0.7775933165533123 		Uiso   ? 		O 		-0.64157
O 1.0  		0.09225237108221845 		0.0635952515545506  0.7784858708652421 		Uiso   ? 		O 		-0.64157
O 1.0  		0.5915928647698009 		0.5637208718045349  0.779556936039558 		Uiso   ? 		O 		-0.64157
O 1.0  		0.5947333710194084 		0.06379153319515106  0.7768792731037685 		Uiso   ? 		O 		-0.64157
O 1.0  		0.34427799761321526 		0.3128729351171409  0.7777718274156983 		Uiso   ? 		O 		-0.64157
O 1.0  		0.09166352616041704 		0.565487406569939  0.7745586318927508 		Uiso   ? 		O 		-0.64157
O 1.0  		0.839496576848188 		0.8128022737265248  0.7786643817276282 		Uiso   ? 		O 		-0.64157
O 1.0  		0.7949406444318824 		0.20629200427108849  0.20778664381727627 		Uiso   ? 		O 		-1.00439
O 1.0  		0.2934410526976948 		0.7097544124112808  0.20493047001910067 		Uiso   ? 		O 		-1.00439
O 1.0  		0.04750015702531243 		0.9566767162866654  0.2085006872668202 		Uiso   ? 		O 		-1.00439
O 1.0  		0.5440927077444884 		0.45556968783367885  0.2108213284778379 		Uiso   ? 		O 		-1.00439
O 1.0  		0.546055524150493 		0.9588358143332706  0.2115353719273818 		Uiso   ? 		O 		-1.00439
O 1.0  		0.293048489416494 		0.206488285911689  0.2108213284778379 		Uiso   ? 		O 		-1.00439
O 1.0  		0.0427893976509013 		0.46028044720809  0.21207090451453972 		Uiso   ? 		O 		-1.00439
O 1.0  		0.7935666729476792 		0.7107358206142831  0.20814366554204825 		Uiso   ? 		O 		-1.00439
O 1.0  		0.7980811506814899 		0.20432918786508386  0.518038522644103 		Uiso   ? 		O 		-0.99942
O 1.0  		0.2963852773067018 		0.7077915960052761  0.5151823488459273 		Uiso   ? 		O 		-0.99942
O 1.0  		0.04632246718170964 		0.9576581244896677  0.5150038379835413 		Uiso   ? 		O 		-0.99942
O 1.0  		0.5427187362602852 		0.4579250675208844  0.5192880986808047 		Uiso   ? 		O 		-0.99942
O 1.0  		0.5462518057910934 		0.9592283776144714  0.5158963922954712 		Uiso   ? 		O 		-0.99942
O 1.0  		0.2969741222285032 		0.20629200427108849  0.5158963922954712 		Uiso   ? 		O 		-0.99942
O 1.0  		0.043770805853903624 		0.457336222599083  0.5162534140202432 		Uiso   ? 		O 		-0.99942
O 1.0  		0.796903460837887 		0.7068101878022738  0.5160749031578572 		Uiso   ? 		O 		-0.99942
O 1.0  		0.04828528358771431 		0.4587101940832863  0.8272193362966137 		Uiso   ? 		O 		-1.00713
O 1.0  		0.5433075811820864 		0.9604060674580742  0.8266838037094558 		Uiso   ? 		O 		-1.00713
O 1.0  		0.29422617926009675 		0.2074696941146913  0.8284689123333155 		Uiso   ? 		O 		-1.00713
O 1.0  		0.7990625588844922 		0.70523993467747  0.8248986950855961 		Uiso   ? 		O 		-1.00713
O 1.0  		0.7980811506814899 		0.2102176370830978  0.8270408254342277 		Uiso   ? 		O 		-1.00713
O 1.0  		0.544288989385089 		0.45851391244268574  0.8281118906085436 		Uiso   ? 		O 		-1.00713
O 1.0  		0.2946187425412976 		0.7060250612398719  0.8282904014709295 		Uiso   ? 		O 		-1.00713
O 1.0  		0.04514477733810685 		0.9578544061302683  0.8291829557828594 		Uiso   ? 		O 		-1.00713
O 1.0  		0.0031405062496074093 		0.4498775202562653  0.17743979721166034 		Uiso   ? 		O 		-1.00575
O 1.0  		0.5046400979837949 		0.9501994221468502  0.1777968189364323 		Uiso   ? 		O 		-1.00575
O 1.0  		0.2543810062182024 		0.2002072734124741  0.1740480908263268 		Uiso   ? 		O 		-1.00575
O 1.0  		0.7527400917027826 		0.6983700772564537  0.17440511255109875 		Uiso   ? 		O 		-1.00575
O 1.0  		0.7562731612335909 		0.19765561208466803  0.1731555365143969 		Uiso   ? 		O 		-1.00575
O 1.0  		0.5030698448589913 		0.44869983041266254  0.17583319945018655 		Uiso   ? 		O 		-1.00575
O 1.0  		0.25202562653099675 		0.6999403303812575  0.17119191702815117 		Uiso   ? 		O 		-1.00575
O 1.0  		0.007458702342817604 		0.9490217323032474  0.1745836234134847 		Uiso   ? 		O 		-1.00575
O 1.0  		0.002159098046605085 		0.45184033666226997  0.48662061086417113 		Uiso   ? 		O 		-0.99049
O 1.0  		0.5001256202499842 		0.9527510834746562  0.4869776325889431 		Uiso   ? 		O 		-0.99049
O 1.0  		0.25339959801520007 		0.20197380817787827  0.487691676038487 		Uiso   ? 		O 		-0.99049
O 1.0  		0.7511698385779788 		0.7019031467872622  0.48715614345132907 		Uiso   ? 		O 		-0.99049
O 1.0  		0.7539177815463853 		0.2002072734124741  0.4898338063871187 		Uiso   ? 		O 		-0.99049
O 1.0  		0.4999293386093839 		0.45203661830287045  0.49019082811189063 		Uiso   ? 		O 		-0.99049
O 1.0  		0.2539884429370014 		0.7013143018654607  0.48572805655224127 		Uiso   ? 		O 		-0.99049
O 1.0  		0.0011776898436027306 		0.950984548709252  0.4869776325889431 		Uiso   ? 		O 		-0.99049
O 1.0  		0.0035330695308083385 		0.45184033666226997  0.7984790874524715 		Uiso   ? 		O 		-0.98608
O 1.0  		0.4999293386093838 		0.9554990264430627  0.7970510005533837 		Uiso   ? 		O 		-0.98608
O 1.0  		0.2526144714527982 		0.20099239997487597  0.7977650440029277 		Uiso   ? 		O 		-0.98608
O 1.0  		0.7505809936561774 		0.7050436530368696  0.7997286634891735 		Uiso   ? 		O 		-0.98608
O 1.0  		0.7521512467809811 		0.20432918786508386  0.7993716417644013 		Uiso   ? 		O 		-0.98608
O 1.0  		0.5007144651717857 		0.45105521009986815  0.7984790874524715 		Uiso   ? 		O 		-0.98608
O 1.0  		0.2510442183279944 		0.7028845549902645  0.7970510005533837 		Uiso   ? 		O 		-0.98608
O 1.0  		0.9990735506563657 		0.953143646755857  0.8016922829754191 		Uiso   ? 		O 		-0.98608
O 1.0  		0.018646755857044145 		0.16546542302619183  0.36594726789125115 		Uiso   ? 		O 		-0.61533
O 1.0  		0.513472771810816 		0.6651984799949752  0.36380513754261945 		Uiso   ? 		O 		-0.61533
O 1.0  		0.2626248351234219 		0.9185980780101752  0.36451918099216335 		Uiso   ? 		O 		-0.61533
O 1.0  		0.7686389045914201 		0.4145468249481817  0.3636266266802335 		Uiso   ? 		O 		-0.61533
O 1.0  		0.7670686514666163 		0.9138873186357641  0.36273407236830363 		Uiso   ? 		O 		-0.61533
O 1.0  		0.5140616167326174 		0.16605426794799322  0.3663042896160232 		Uiso   ? 		O 		-0.61533
O 1.0  		0.2645876515294266 		0.41827617611959045  0.3684464199646549 		Uiso   ? 		O 		-0.61533
O 1.0  		0.012562024998429707 		0.6671612964009799  0.36309109409307555 		Uiso   ? 		O 		-0.61533
O 1.0  		0.01589881288863764 		0.16821336599459832  0.675306592406148 		Uiso   ? 		O 		-0.62379
O 1.0  		0.5183798128258276 		0.6657873249167766  0.6763776575804639 		Uiso   ? 		O 		-0.62379
O 1.0  		0.2663541862948307 		0.9166352616041706  0.6749495706813761 		Uiso   ? 		O 		-0.62379
O 1.0  		0.7696203127944224 		0.4176873311977891  0.6760206358556918 		Uiso   ? 		O 		-0.62379
O 1.0  		0.7698165944350229 		0.9176166698071729  0.6761991467180778 		Uiso   ? 		O 		-0.62379
O 1.0  		0.5175946862634258 		0.16585798630739276  0.6763776575804639 		Uiso   ? 		O 		-0.62379
O 1.0  		0.26674674957603167 		0.415528233151184  0.6763776575804639 		Uiso   ? 		O 		-0.62379
O 1.0  		0.017076502732240394 		0.6703018026505874  0.6765561684428498 		Uiso   ? 		O 		-0.62379
O 1.0  		0.1002999183468375 		0.2708686640286414  0.34738213820310965 		Uiso   ? 		O 		-0.64460
O 1.0  		0.5980701589096163 		0.7674612147478175  0.3455970295792499 		Uiso   ? 		O 		-0.64460
O 1.0  		0.3505590101124301 		0.018843037497644623  0.34720362734072374 		Uiso   ? 		O 		-0.64460
O 1.0  		0.8461701526286037 		0.5195575026694303  0.34416894268016207 		Uiso   ? 		O 		-0.64460
O 1.0  		0.8469552791910058 		0.022179825387852525  0.34791767079026764 		Uiso   ? 		O 		-0.64460
O 1.0  		0.5990515671126186 		0.2698872558256391  0.34898873596458346 		Uiso   ? 		O 		-0.64460
O 1.0  		0.3460445323786194 		0.5219128823566359  0.34827469251503956 		Uiso   ? 		O 		-0.64460
O 1.0  		0.09774825701903143 		0.7721719741222286  0.34595405130402185 		Uiso   ? 		O 		-0.64460
O 1.0  		0.10285157967464355 		0.2716537905910433  0.6562059301308485 		Uiso   ? 		O 		-0.64660
O 1.0  		0.5994441303938195 		0.7717794108410276  0.660490190828112 		Uiso   ? 		O 		-0.64660
O 1.0  		0.34820363042522456 		0.02080585390364927  0.6579910387547082 		Uiso   ? 		O 		-0.64660
O 1.0  		0.8548065448150243 		0.5228942905596383  0.6542423106446028 		Uiso   ? 		O 		-0.64660
O 1.0  		0.8520586018466177 		0.02414264179385717  0.6590621039290242 		Uiso   ? 		O 		-0.64660
O 1.0  		0.6012106651592237 		0.2692984109038377  0.6585265713418662 		Uiso   ? 		O 		-0.64660
O 1.0  		0.34977388355002825 		0.5201463475912317  0.6560274192684625 		Uiso   ? 		O 		-0.64660
O 1.0  		0.10088876326863887 		0.7733496639658314  0.6551348649565326 		Uiso   ? 		O 		-0.64660
O 1.0  		0.9796416682369198 		0.34525940581621756  0.31971295453328336 		Uiso   ? 		O 		-0.65538
O 1.0  		0.48089001947113874 		0.8481329690346083  0.32292615005623093 		Uiso   ? 		O 		-0.65538
O 1.0  		0.2310234909867471 		0.09519659569122543  0.3156072046984059 		Uiso   ? 		O 		-0.65538
O 1.0  		0.725456943659318 		0.5943408077382074  0.3179278459094236 		Uiso   ? 		O 		-0.65538
O 1.0  		0.7303639846743296 		0.09794453865963194  0.31828486763419556 		Uiso   ? 		O 		-0.65538
O 1.0  		0.47892720306513414 		0.3468296589410213  0.3161427372855638 		Uiso   ? 		O 		-0.65538
O 1.0  		0.22552760504993405 		0.5957147792224107  0.3120369874506864 		Uiso   ? 		O 		-0.65538
O 1.0  		0.9768937252685134 		0.8444036178631995  0.3161427372855638 		Uiso   ? 		O 		-0.65538
O 1.0  		0.98395986433013 		0.3515404183154325  0.62996483336011 		Uiso   ? 		O 		-0.65587
O 1.0  		0.4804974561899378 		0.8473478424722066  0.6288937681857941 		Uiso   ? 		O 		-0.65587
O 1.0  		0.2298458011431443 		0.09735569373783054  0.6269301486995484 		Uiso   ? 		O 		-0.65587
O 1.0  		0.7333082092833365 		0.5974813139878149  0.6285367464610222 		Uiso   ? 		O 		-0.65587
O 1.0  		0.7307565479555305 		0.09735569373783054  0.6283582355986362 		Uiso   ? 		O 		-0.65587
O 1.0  		0.4810863011117393 		0.34427799761321526  0.6290722790481801 		Uiso   ? 		O 		-0.65587
O 1.0  		0.2312197726273475 		0.5945370893788079  0.6233599314518289 		Uiso   ? 		O 		-0.65587
O 1.0  		0.9849412725331324 		0.850880912003015  0.6269301486995484 		Uiso   ? 		O 		-0.65587
O 1.0  		0.9168315432447711 		0.2298458011431443  0.29882718363412414 		Uiso   ? 		O 		-0.62182
O 1.0  		0.41768733119778906 		0.7368412788141449  0.29668505328549244 		Uiso   ? 		O 		-0.62182
O 1.0  		0.16723195779159594 		0.9871003705797375  0.2965065424231065 		Uiso   ? 		O 		-0.62182
O 1.0  		0.6624505370265688 		0.47971232962753596  0.30328995519377355 		Uiso   ? 		O 		-0.62182
O 1.0  		0.6689278311663839 		0.9833710194083286  0.29882718363412414 		Uiso   ? 		O 		-0.62182
O 1.0  		0.4188650210413919 		0.2363230952829596  0.3013263357075278 		Uiso   ? 		O 		-0.62182
O 1.0  		0.16566170466679225 		0.48383424408014575  0.2986486727717382 		Uiso   ? 		O 		-0.62182
O 1.0  		0.9193832045725772 		0.7358598706111426  0.29704207501026436 		Uiso   ? 		O 		-0.62182
O 1.0  		0.9182055147289744 		0.23789334840776333  0.6103286384976526 		Uiso   ? 		O 		-0.62788
O 1.0  		0.41807989447898997 		0.7327193643615352  0.6096145950481088 		Uiso   ? 		O 		-0.62788
O 1.0  		0.16625054958859364 		0.9876892155015389  0.6103286384976526 		Uiso   ? 		O 		-0.62788
O 1.0  		0.672264619056592 		0.48442308900194714  0.6110426819471966 		Uiso   ? 		O 		-0.62788
O 1.0  		0.6712832108535896 		0.9865115256579361  0.6087220407361789 		Uiso   ? 		O 		-0.62788
O 1.0  		0.41925758432259286 		0.23279002575215124  0.6108641710848106 		Uiso   ? 		O 		-0.62788
O 1.0  		0.17115759060360528 		0.4848156522831481  0.6072939538370911 		Uiso   ? 		O 		-0.62788
O 1.0  		0.922719992462785 		0.7386078135795491  0.6053303343508453 		Uiso   ? 		O 		-0.62788
O 1.0  		0.06496922303875384 		0.15918441052697696  0.34738213820310965 		Uiso   ? 		O 		-0.64405
O 1.0  		0.5595989573519251 		0.6555806796055524  0.3436334100930042 		Uiso   ? 		O 		-0.64405
O 1.0  		0.30992871050813386 		0.9097654041831543  0.34863171423981154 		Uiso   ? 		O 		-0.64405
O 1.0  		0.8135874002889265 		0.4061067144023617  0.34345489923061817 		Uiso   ? 		O 		-0.64405
O 1.0  		0.8131948370077257 		0.9064286162929466  0.34381192095539015 		Uiso   ? 		O 		-0.64405
O 1.0  		0.5605803655549275 		0.15525877771496768  0.3464895838911798 		Uiso   ? 		O 		-0.64405
O 1.0  		0.3118915269141386 		0.4088546573707682  0.3498812902765133 		Uiso   ? 		O 		-0.64405
O 1.0  		0.05947333710194079 		0.6595063124175617  0.3429193666434603 		Uiso   ? 		O 		-0.64405
O 1.0  		0.06261384335154827 		0.16153979021418252  0.6554918866813046 		Uiso   ? 		O 		-0.64285
O 1.0  		0.5631320268827336 		0.6595063124175617  0.6576340170299363 		Uiso   ? 		O 		-0.64285
O 1.0  		0.3126766534765404 		0.9089802776207526  0.6572769953051644 		Uiso   ? 		O 		-0.64285
O 1.0  		0.8165316248979336 		0.41081747377677286  0.6567414627180064 		Uiso   ? 		O 		-0.64285
O 1.0  		0.8159427799761321 		0.9113356573079581  0.6578125278923223 		Uiso   ? 		O 		-0.64285
O 1.0  		0.563328308523334 		0.15761415740217324  0.6581695496170942 		Uiso   ? 		O 		-0.64285
O 1.0  		0.3128729351171409 		0.40669555932416307  0.6560274192684625 		Uiso   ? 		O 		-0.64285
O 1.0  		0.06202499842974684 		0.6610765655423655  0.6569199735803924 		Uiso   ? 		O 		-0.64285
O 1.0  		0.09264493436341938 		0.31032127378933483  0.3193559328085114 		Uiso   ? 		O 		-0.62061
O 1.0  		0.5902188932855977 		0.8082877959927142  0.3161427372855638 		Uiso   ? 		O 		-0.62061
O 1.0  		0.34427799761321526 		0.05947333710194083  0.3161427372855638 		Uiso   ? 		O 		-0.62061
O 1.0  		0.8379263237233843 		0.5597952389925256  0.3159642264231779 		Uiso   ? 		O 		-0.62061
O 1.0  		0.8416556748947931 		0.06006218202374223  0.3181063567718096 		Uiso   ? 		O 		-0.62061
O 1.0  		0.5908077382073991 		0.30875102066453114  0.31971295453328336 		Uiso   ? 		O 		-0.62061
O 1.0  		0.3385858300358017 		0.560384083914327  0.3157857155607919 		Uiso   ? 		O 		-0.62061
O 1.0  		0.09048583631681423 		0.8116245838829219  0.3159642264231779 		Uiso   ? 		O 		-0.62061
O 1.0  		0.09362634256642169 		0.31208780855473905  0.6244309966261448 		Uiso   ? 		O 		-0.62300
O 1.0  		0.5925742729728033 		0.8112320206017211  0.629429300772952 		Uiso   ? 		O 		-0.62300
O 1.0  		0.34290402612901205 		0.06045474530494316  0.629786322497724 		Uiso   ? 		O 		-0.62300
O 1.0  		0.8445998995038001 		0.5631320268827336  0.6255020618004606 		Uiso   ? 		O 		-0.62300
O 1.0  		0.8447961811444006 		0.06457665975755292  0.629250789910566 		Uiso   ? 		O 		-0.62300
O 1.0  		0.5943408077382074 		0.30875102066453114  0.629429300772952 		Uiso   ? 		O 		-0.62300
O 1.0  		0.34349287105081333 		0.5590101124301238  0.6288937681857941 		Uiso   ? 		O 		-0.62300
O 1.0  		0.09244865272281887 		0.8135874002889265  0.6253235509380747 		Uiso   ? 		O 		-0.62300
O 1.0  		0.04651874882231014 		0.20589944098988758  0.36112747460682987 		Uiso   ? 		O 		-0.99542
O 1.0  		0.5440927077444884 		0.7044548081150682  0.3588068333958121 		Uiso   ? 		O 		-0.99542
O 1.0  		0.2934410526976948 		0.9566767162866654  0.36023492029489995 		Uiso   ? 		O 		-0.99542
O 1.0  		0.796903460837887 		0.454391997990076  0.35791427908388224 		Uiso   ? 		O 		-0.99542
O 1.0  		0.7967071791972866 		0.9527510834746562  0.35827130080865427 		Uiso   ? 		O 		-0.99542
O 1.0  		0.546840650712895 		0.20315149802148105  0.36255556150591767 		Uiso   ? 		O 		-0.99542
O 1.0  		0.2954038691036995 		0.4563548143960807  0.36326960495546157 		Uiso   ? 		O 		-0.99542
O 1.0  		0.042004271088499426 		0.7070064694428743  0.3588068333958121 		Uiso   ? 		O 		-0.99542
O 1.0  		0.044948495697506426 		0.20864738395829407  0.6720933968832004 		Uiso   ? 		O 		-0.99729
O 1.0  		0.5462518057910936 		0.7066139061616733  0.6724504186079723 		Uiso   ? 		O 		-0.99729
O 1.0  		0.29658155894730226 		0.9570692795678665  0.6715578642960425 		Uiso   ? 		O 		-0.99729
O 1.0  		0.7996514038062936 		0.4581213491614849  0.6713793534336565 		Uiso   ? 		O 		-0.99729
O 1.0  		0.7970997424784875 		0.9586395326926702  0.6710223317088845 		Uiso   ? 		O 		-0.99729
O 1.0  		0.5476257772752968 		0.206488285911689  0.6731644620575162 		Uiso   ? 		O 		-0.99729
O 1.0  		0.2983480937127065 		0.4528217448652723  0.6706653099841126 		Uiso   ? 		O 		-0.99729
O 1.0  		0.046126185541109185 		0.7109321022548835  0.6704867991217266 		Uiso   ? 		O 		-0.99729
O 1.0  		0.05201463475912316 		0.30031091011871114  0.3532729966618469 		Uiso   ? 		O 		-0.93429
O 1.0  		0.5533179448527102 		0.7994551221656933  0.352737464074689 		Uiso   ? 		O 		-0.93429
O 1.0  		0.3028625714465172 		0.05201463475912318  0.3511308663132152 		Uiso   ? 		O 		-0.93429
O 1.0  		0.7990625588844922 		0.5488034671188996  0.35077384458844324 		Uiso   ? 		O 		-0.93429
O 1.0  		0.8029881916965016 		0.053388606243326434  0.35291597493707494 		Uiso   ? 		O 		-0.93429
O 1.0  		0.551943973368507 		0.29972206519690975  0.3550581052857067 		Uiso   ? 		O 		-0.93429
O 1.0  		0.2985443753533069 		0.5509625651655047  0.35220193148753104 		Uiso   ? 		O 		-0.93429
O 1.0  		0.05319232460272592 		0.8020067834934993  0.35005980113889934 		Uiso   ? 		O 		-0.93429
O 1.0  		0.05652911249293384 		0.3018811632435149  0.6628108320391296 		Uiso   ? 		O 		-0.93405
O 1.0  		0.5511588468061052 		0.801025375290497  0.6642389189382174 		Uiso   ? 		O 		-0.93405
O 1.0  		0.3022737265247158 		0.05122950819672132  0.6631678537639015 		Uiso   ? 		O 		-0.93405
O 1.0  		0.8076989510709127 		0.5544956346963131  0.6622752994519717 		Uiso   ? 		O 		-0.93405
O 1.0  		0.8033807549777024 		0.05437001444632875  0.6628108320391296 		Uiso   ? 		O 		-0.93405
O 1.0  		0.5560658878211169 		0.301096036681113  0.6638818972134455 		Uiso   ? 		O 		-0.93405
O 1.0  		0.3024700081653162 		0.5489997487595001  0.6619182777271998 		Uiso   ? 		O 		-0.93405
O 1.0  		0.053977451165127775 		0.802791910055901  0.660668701690498 		Uiso   ? 		O 		-0.93405
O 1.0  		0.0023553796872055658 		0.19824445700646945  0.3306021171388279 		Uiso   ? 		O 		-0.98994
O 1.0  		0.49894793040638147 		0.6999403303812575  0.32881700851496815 		Uiso   ? 		O 		-0.98994
O 1.0  		0.25084793668739397 		0.9523585201934553  0.329888073689284 		Uiso   ? 		O 		-0.98994
O 1.0  		0.7521512467809811 		0.4498775202562653  0.3313161605883718 		Uiso   ? 		O 		-0.98994
O 1.0  		0.7511698385779787 		0.9494142955844482  0.3309591388635999 		Uiso   ? 		O 		-0.98994
O 1.0  		0.501695873374788 		0.2007961183342755  0.33435084524893344 		Uiso   ? 		O 		-0.98994
O 1.0  		0.25124049996859493 		0.451447773381069  0.3338153126617755 		Uiso   ? 		O 		-0.98994
O 1.0  		0.9969144526097607 		0.7013143018654607  0.3284599867901962 		Uiso   ? 		O 		-0.98994
O 1.0  		0.0007851265624018468 		0.20295521638088063  0.6421035720023563 		Uiso   ? 		O 		-0.99159
O 1.0  		0.5032661264995918 		0.7017068651466617  0.6428176154519003 		Uiso   ? 		O 		-0.99159
O 1.0  		0.2524181898121977 		0.953143646755857  0.6417465502775844 		Uiso   ? 		O 		-0.99159
O 1.0  		0.7543103448275863 		0.45164405502166954  0.6431746371766722 		Uiso   ? 		O 		-0.99159
O 1.0  		0.7535252182651843 		0.953143646755857  0.6417465502775844 		Uiso   ? 		O 		-0.99159
O 1.0  		0.5032661264995918 		0.2011886816154764  0.6431746371766722 		Uiso   ? 		O 		-0.99159
O 1.0  		0.253792161296401 		0.451447773381069  0.6442457023509881 		Uiso   ? 		O 		-0.99159
O 1.0  		0.0009814082030022808 		0.7048473713962692  0.6435316589014441 		Uiso   ? 		O 		-0.99159
O 1.0  		0.994951636203756 		0.08047547264619057  0.21439154572555744 		Uiso   ? 		O 		-0.61058
O 1.0  		0.49090038314176243 		0.5813862194585768  0.2147485674503294 		Uiso   ? 		O 		-0.61058
O 1.0  		0.242407826141574 		0.8271308334903588  0.2129634588264696 		Uiso   ? 		O 		-0.61058
O 1.0  		0.7435148545945607 		0.33426763394259157  0.21046430675306593 		Uiso   ? 		O 		-0.61058
O 1.0  		0.7427297280321588 		0.8320378745053703  0.21135686106499582 		Uiso   ? 		O 		-0.61058
O 1.0  		0.4914892280635639 		0.08341969725519754  0.21421303486317142 		Uiso   ? 		O 		-0.61058
O 1.0  		0.24142641793857167 		0.3326973808177879  0.2152841000374873 		Uiso   ? 		O 		-0.61058
O 1.0  		0.9898483135481441 		0.5819750643803782  0.21046430675306593 		Uiso   ? 		O 		-0.61058
O 1.0  		0.9892594686263426 		0.07949406444318825  0.5200021421303487 		Uiso   ? 		O 		-0.61922
O 1.0  		0.48520821556434895 		0.5821713460209786  0.5214302290294365 		Uiso   ? 		O 		-0.61922
O 1.0  		0.23416399723635448 		0.8324304377865712  0.5191095878184188 		Uiso   ? 		O 		-0.61922
O 1.0  		0.7354673073299416 		0.3366230136297972  0.5210732073046646 		Uiso   ? 		O 		-0.61922
O 1.0  		0.7344858991269393 		0.8365523522391809  0.5201806529927346 		Uiso   ? 		O 		-0.61922
O 1.0  		0.48893756673575783 		0.08440110545819987  0.5200021421303487 		Uiso   ? 		O 		-0.61922
O 1.0  		0.23828591168896424 		0.33151969097418504  0.5221442724789803 		Uiso   ? 		O 		-0.61922
O 1.0  		0.9835673010489292 		0.5804048112555744  0.5216087398918224 		Uiso   ? 		O 		-0.61922
O 1.0  		0.9882780604233403 		0.08773789334840777  0.8277548688837716 		Uiso   ? 		O 		-0.93440
O 1.0  		0.48481565228314805 		0.5849192889893852  0.8300755100947894 		Uiso   ? 		O 		-0.93440
O 1.0  		0.2343602788769549 		0.8375337604421834  0.8306110426819472 		Uiso   ? 		O 		-0.93440
O 1.0  		0.7374301237359463 		0.33897839331700275  0.8318606187186491 		Uiso   ? 		O 		-0.93440
O 1.0  		0.7348784624081403 		0.8367486338797815  0.8345382816544387 		Uiso   ? 		O 		-0.93440
O 1.0  		0.4914892280635639 		0.08106431756799196  0.8318606187186491 		Uiso   ? 		O 		-0.93440
O 1.0  		0.24260410778217448 		0.33387507066139066  0.8306110426819472 		Uiso   ? 		O 		-0.93440
O 1.0  		0.9904371584699455 		0.5845267257081842  0.8315035969938772 		Uiso   ? 		O 		-0.93440
O 1.0  		0.15447365115256578 		0.22788298473713964  0.19172066620253844 		Uiso   ? 		O 		-0.65393
O 1.0  		0.6555806796055524 		0.7299714213931285  0.19154215534015245 		Uiso   ? 		O 		-0.65393
O 1.0  		0.40532158783995975 		0.9798379498775203  0.19011406844106465 		Uiso   ? 		O 		-0.65393
O 1.0  		0.9032881100433391 		0.47912348470573457  0.18761491636766098 		Uiso   ? 		O 		-0.65393
O 1.0  		0.905839771371145 		0.9778751334715157  0.18922151412913477 		Uiso   ? 		O 		-0.65393
O 1.0  		0.6581323409333585 		0.2280792663777401  0.19457684000071407 		Uiso   ? 		O 		-0.65393
O 1.0  		0.4049290245587589 		0.47716066829973  0.19421981827594212 		Uiso   ? 		O 		-0.65393
O 1.0  		0.15545505935556808 		0.7262420702217198  0.19154215534015245 		Uiso   ? 		O 		-0.65393
O 1.0  		0.15447365115256578 		0.22847182965894103  0.5046502079651547 		Uiso   ? 		O 		-0.65212
O 1.0  		0.6518513284341436 		0.7297751397525282  0.5025080776165229 		Uiso   ? 		O 		-0.65212
O 1.0  		0.4057141511211607 		0.9802305131587212  0.502865099341295 		Uiso   ? 		O 		-0.65212
O 1.0  		0.9026992651215376 		0.47676810501852895  0.4992948820935755 		Uiso   ? 		O 		-0.65212
O 1.0  		0.9036806733245398 		0.978856541674518  0.5010799907174351 		Uiso   ? 		O 		-0.65212
O 1.0  		0.6549918346837511 		0.22749042145593873  0.5034006319284529 		Uiso   ? 		O 		-0.65212
O 1.0  		0.40335877143395515 		0.47951604798693553  0.5009014798550492 		Uiso   ? 		O 		-0.65212
O 1.0  		0.15506249607436715 		0.7268309151435212  0.5026865884789089 		Uiso   ? 		O 		-0.65212
O 1.0  		0.15722159412097228 		0.22847182965894103  0.8074046305717703 		Uiso   ? 		O 		-0.92932
O 1.0  		0.6538141448401482 		0.73056026631493  0.8120459129938058 		Uiso   ? 		O 		-0.92932
O 1.0  		0.4039476163557565 		0.9837635826895296  0.8031203698745069 		Uiso   ? 		O 		-0.92932
O 1.0  		0.9081951510583506 		0.48069373783053826  0.8050839893607526 		Uiso   ? 		O 		-0.92932
O 1.0  		0.9044657998869416 		0.9794453865963194  0.8104393152323319 		Uiso   ? 		O 		-0.92932
O 1.0  		0.6559732428867534 		0.2296495195025438  0.8063335653974546 		Uiso   ? 		O 		-0.92932
O 1.0  		0.4051253061993593 		0.4779457948621318  0.8034773915992789 		Uiso   ? 		O 		-0.92932
O 1.0  		0.15525877771496763 		0.7311491112367314  0.8079401631589282 		Uiso   ? 		O 		-0.92932
O 1.0  		0.024927768356259008 		0.40100339174674965  0.17440511255109875 		Uiso   ? 		O 		-0.93012
O 1.0  		0.5254459518874443 		0.9005401670749326  0.17297702565201092 		Uiso   ? 		O 		-0.93012
O 1.0  		0.27871992965266 		0.1544736511525658  0.1635159499455542 		Uiso   ? 		O 		-0.93012
O 1.0  		0.7764901702154388 		0.6520476100747441  0.1694068084042914 		Uiso   ? 		O 		-0.93012
O 1.0  		0.7762938885748383 		0.14937032849695372  0.16547956943179995 		Uiso   ? 		O 		-0.93012
O 1.0  		0.5272124866528485 		0.40257364487155334  0.165122547707028 		Uiso   ? 		O 		-0.93012
O 1.0  		0.2753831417624521 		0.6518513284341436  0.16387297167032616 		Uiso   ? 		O 		-0.93012
O 1.0  		0.030619935933672453 		0.9019141385591357  0.1658365911565719 		Uiso   ? 		O 		-0.93012
O 1.0  		0.024535205075058075 		0.39923685698134537  0.4739463396347668 		Uiso   ? 		O 		-0.65740
O 1.0  		0.5228942905596383 		0.9040732366057409  0.472696763598065 		Uiso   ? 		O 		-0.65740
O 1.0  		0.27538314176245215 		0.15192198982475977  0.4712686766989772 		Uiso   ? 		O 		-0.65740
O 1.0  		0.7715831292004272 		0.6520476100747441  0.4719827201485211 		Uiso   ? 		O 		-0.65740
O 1.0  		0.7745273538094342 		0.1489777652157528  0.4748388939466967 		Uiso   ? 		O 		-0.65740
O 1.0  		0.5234831354814397 		0.4031624897933547  0.4739463396347668 		Uiso   ? 		O 		-0.65740
O 1.0  		0.27597198668425343 		0.6528327366371459  0.4701976115246613 		Uiso   ? 		O 		-0.65740
O 1.0  		0.021394698825450607 		0.901129011996734  0.47251825273567893 		Uiso   ? 		O 		-0.65740
O 1.0  		0.025712894918660866 		0.4027699265121538  0.7843767293239794 		Uiso   ? 		O 		-0.65228
O 1.0  		0.5199500659506312 		0.9072137428553483  0.7816990663881896 		Uiso   ? 		O 		-0.65228
O 1.0  		0.2749905784812512 		0.1523145531059607  0.7838411967368215 		Uiso   ? 		O 		-0.65228
O 1.0  		0.7684426229508198 		0.6565620878085549  0.7788428925900143 		Uiso   ? 		O 		-0.65228
O 1.0  		0.7737422272470323 		0.15604390427736953  0.7831271532872776 		Uiso   ? 		O 		-0.65228
O 1.0  		0.5230905722002387 		0.4023773632309528  0.7849122619111374 		Uiso   ? 		O 		-0.65228
O 1.0  		0.2716537905910432 		0.6528327366371459  0.7818775772505757 		Uiso   ? 		O 		-0.65228
O 1.0  		0.021394698825450607 		0.9050546448087432  0.7829486424248916 		Uiso   ? 		O 		-0.65228
O 1.0  		0.8402817034105898 		0.259288047233214  0.14013102697299132 		Uiso   ? 		O 		-0.81830
O 1.0  		0.3405486464418064 		0.7688351862320206  0.1419161355968511 		Uiso   ? 		O 		-0.81830
O 1.0  		0.08911186483261102 		0.011973180076628353  0.13834591834913157 		Uiso   ? 		O 		-0.81830
O 1.0  		0.5853118522705861 		0.5132764901702155  0.1440582659454828 		Uiso   ? 		O 		-0.81830
O 1.0  		0.5866858237547893 		0.01511368632623579  0.14155911387207915 		Uiso   ? 		O 		-0.81830
O 1.0  		0.33564160542679483 		0.2643913698888261  0.14280868990878096 		Uiso   ? 		O 		-0.81830
O 1.0  		0.08597135858300356 		0.5122950819672131  0.14155911387207915 		Uiso   ? 		O 		-0.81830
O 1.0  		0.8393002952075874 		0.7651058350606118  0.14120209214730717 		Uiso   ? 		O 		-0.81830
O 1.0  		0.8330192827083726 		0.2634099616858238  0.4550241882218533 		Uiso   ? 		O 		-0.61861
O 1.0  		0.3360341687079957 		0.7635355819358082  0.45413163390992345 		Uiso   ? 		O 		-0.61861
O 1.0  		0.08557879530180265 		0.011776898436027888  0.45073992752458986 		Uiso   ? 		O 		-0.61861
O 1.0  		0.5855081339111865 		0.5146504616544187  0.45752334029525704 		Uiso   ? 		O 		-0.61861
O 1.0  		0.5898263300043968 		0.018254192575843226  0.4550241882218533 		Uiso   ? 		O 		-0.61861
O 1.0  		0.3340713523019911 		0.2649802148106275  0.4560952533961692 		Uiso   ? 		O 		-0.61861
O 1.0  		0.08400854217699891 		0.515631869857421  0.4532390795979936 		Uiso   ? 		O 		-0.61861
O 1.0  		0.8314490295835689 		0.7637318635764085  0.4514539709741338 		Uiso   ? 		O 		-0.61861
O 1.0  		0.8349820991143772 		0.26635418629483076  0.7617058498009605 		Uiso   ? 		O 		-0.62538
O 1.0  		0.3336787890207901 		0.7619653288110044  0.7636694692872061 		Uiso   ? 		O 		-0.62538
O 1.0  		0.08302713397399661 		0.014524841404434396  0.7624198932505043 		Uiso   ? 		O 		-0.62538
O 1.0  		0.5859006971923875 		0.5140616167326174  0.7629554258376623 		Uiso   ? 		O 		-0.62538
O 1.0  		0.5868821053953898 		0.01472112304503486  0.7599207411771006 		Uiso   ? 		O 		-0.62538
O 1.0  		0.3381932667546009 		0.26262483512342194  0.7643835127367501 		Uiso   ? 		O 		-0.62538
O 1.0  		0.08773789334840774 		0.515631869857421  0.7618843606633464 		Uiso   ? 		O 		-0.62538
O 1.0  		0.8302713397399663 		0.7666760881854155  0.7611703172138026 		Uiso   ? 		O 		-0.62538
O 1.0  		0.9445072545694367 		0.08695276678600591  0.1974330137988897 		Uiso   ? 		O 		-0.63914
O 1.0  		0.4408485647886439 		0.5872746686765907  0.1972545029365037 		Uiso   ? 		O 		-0.63914
O 1.0  		0.19510395075686196 		0.8371411971609823  0.19975365500990735 		Uiso   ? 		O 		-0.63914
O 1.0  		0.6940518811632436 		0.34035236480120595  0.19350577482639822 		Uiso   ? 		O 		-0.63914
O 1.0  		0.6930704729602413 		0.8391040135669872  0.19600492689980187 		Uiso   ? 		O 		-0.63914
O 1.0  		0.44241881791344767 		0.09048583631681428  0.1967189703493458 		Uiso   ? 		O 		-0.63914
O 1.0  		0.1905894730230513 		0.3379969851140004  0.20296685053285493 		Uiso   ? 		O 		-0.63914
O 1.0  		0.9417593116010301 		0.5890412034419948  0.1974330137988897 		Uiso   ? 		O 		-0.63914
O 1.0  		0.942937001444633 		0.08930814647321149  0.5003659472678913 		Uiso   ? 		O 		-0.62760
O 1.0  		0.44006343822624205 		0.5912003014886  0.5016155233045931 		Uiso   ? 		O 		-0.62760
O 1.0  		0.1886266566170466 		0.8418519565353935  0.4998304146807333 		Uiso   ? 		O 		-0.62760
O 1.0  		0.6899299667106338 		0.3425114628478111  0.5030436102036809 		Uiso   ? 		O 		-0.62760
O 1.0  		0.6881634319452296 		0.8432259280195968  0.5017940341669791 		Uiso   ? 		O 		-0.62760
O 1.0  		0.44241881791344767 		0.09146724451981661  0.5014370124422072 		Uiso   ? 		O 		-0.62760
O 1.0  		0.19078575466365175 		0.34290402612901205  0.502865099341295 		Uiso   ? 		O 		-0.62760
O 1.0  		0.9378336787890208 		0.588648640160794  0.5016155233045931 		Uiso   ? 		O 		-0.62760
O 1.0  		0.9425444381634319 		0.09441146912882357  0.809368250058016 		Uiso   ? 		O 		-0.64212
O 1.0  		0.44065228314804344 		0.5923779913322027  0.8111533586818758 		Uiso   ? 		O 		-0.64212
O 1.0  		0.19078575466365172 		0.8438147729413983  0.8107963369571038 		Uiso   ? 		O 		-0.64212
O 1.0  		0.6920890647572389 		0.34506312417561713  0.8163301736910692 		Uiso   ? 		O 		-0.64212
O 1.0  		0.6893411217888324 		0.8459738709880033  0.8140095324800514 		Uiso   ? 		O 		-0.64212
O 1.0  		0.4445779159600528 		0.0942151874882231  0.817044217140613 		Uiso   ? 		O 		-0.64212
O 1.0  		0.19530023239746244 		0.34388543433201435  0.8145450650672094 		Uiso   ? 		O 		-0.64212
O 1.0  		0.9415630299604296 		0.5937519628164061  0.8132954890305075 		Uiso   ? 		O 		-0.64212
O 1.0  		0.1605583820111802 		0.18862665661704667  0.16387297167032616 		Uiso   ? 		O 		-0.62435
O 1.0  		0.660880283901765 		0.6871820237422273  0.16708616719327374 		Uiso   ? 		O 		-0.62435
O 1.0  		0.4135654167451793 		0.9378336787890208  0.16298041735839627 		Uiso   ? 		O 		-0.62435
O 1.0  		0.9113356573079581 		0.437904340179637  0.16244488477123833 		Uiso   ? 		O 		-0.62435
O 1.0  		0.9132984737139626 		0.9372448338672196  0.1604812652849926 		Uiso   ? 		O 		-0.62435
O 1.0  		0.6636282268701714 		0.1884303749764462  0.1658365911565719 		Uiso   ? 		O 		-0.62435
O 1.0  		0.4106211921361724 		0.43554896049243136  0.16476552598225605 		Uiso   ? 		O 		-0.62435
O 1.0  		0.161343508573582 		0.6848266440550217  0.16298041735839627 		Uiso   ? 		O 		-0.62435
O 1.0  		0.16134350857358207 		0.1911783179448527  0.47430336135953877 		Uiso   ? 		O 		-0.63941
O 1.0  		0.660880283901765 		0.6907150932730357  0.47216123101090707 		Uiso   ? 		O 		-0.63941
O 1.0  		0.41022862885497136 		0.9409741850386282  0.472696763598065 		Uiso   ? 		O 		-0.63941
O 1.0  		0.9119245022297595 		0.4369229319766347  0.47109016583659113 		Uiso   ? 		O 		-0.63941
O 1.0  		0.9101579674643551 		0.9372448338672196  0.47287527446045097 		Uiso   ? 		O 		-0.63941
O 1.0  		0.663431945229571 		0.189608064820049  0.47287527446045097 		Uiso   ? 		O 		-0.63941
O 1.0  		0.4102286288549714 		0.43947459330444066  0.47180420928613503 		Uiso   ? 		O 		-0.63941
O 1.0  		0.1619323534953834 		0.6879671503046291  0.47251825273567893 		Uiso   ? 		O 		-0.63941
O 1.0  		0.16369888826078763 		0.19039319138245087  0.7763437405166105 		Uiso   ? 		O 		-0.65265
O 1.0  		0.6591137491363609 		0.6934630362414421  0.7802709794891021 		Uiso   ? 		O 		-0.65265
O 1.0  		0.40826581244896676 		0.9435258463664344  0.7752726753422946 		Uiso   ? 		O 		-0.65265
O 1.0  		0.9134947553545631 		0.44340022611644997  0.7749156536175227 		Uiso   ? 		O 		-0.65265
O 1.0  		0.9089802776207525 		0.9425444381634319  0.779378425177172 		Uiso   ? 		O 		-0.65265
O 1.0  		0.6618616921047673 		0.19451510583506063  0.7765222513789964 		Uiso   ? 		O 		-0.65265
O 1.0  		0.4131728534639784 		0.43947459330444066  0.7743801210303648 		Uiso   ? 		O 		-0.65265
O 1.0  		0.16095094529238108 		0.6928741913196407  0.779556936039558 		Uiso   ? 		O 		-0.65265
O 1.0  		0.002747942968406505 		0.04475221405690598  0.17422660168871276 		Uiso   ? 		O 		-1.01498
O 1.0  		0.5005181835311853 		0.5460555241504931  0.1754761777254146 		Uiso   ? 		O 		-1.01498
O 1.0  		0.2533995980152 		0.7980811506814899  0.17369106910155482 		Uiso   ? 		O 		-1.01498
O 1.0  		0.7529363733433829 		0.29756296715030467  0.17172744961530909 		Uiso   ? 		O 		-1.01498
O 1.0  		0.7537214999057849 		0.7990625588844922  0.172441493064853 		Uiso   ? 		O 		-1.01498
O 1.0  		0.5022847182965895 		0.04848156522831481  0.17672575376211644 		Uiso   ? 		O 		-1.01498
O 1.0  		0.2514367816091954 		0.30031091011871114  0.17726128634927435 		Uiso   ? 		O 		-1.01498
O 1.0  		0.00019628164060043123 		0.5486071854782991  0.17172744961530909 		Uiso   ? 		O 		-1.01498
O 1.0  		0.003925632812009293 		0.04887412850951574  0.4844784805155394 		Uiso   ? 		O 		-0.99049
O 1.0  		0.5005181835311853 		0.5486071854782991  0.487513165176101 		Uiso   ? 		O 		-0.99049
O 1.0  		0.24908140192198977 		0.7984737139626907  0.4855495456898553 		Uiso   ? 		O 		-0.99049
O 1.0  		0.7505809936561774 		0.29913322027510836  0.48947678466234673 		Uiso   ? 		O 		-0.99049
O 1.0  		0.7492070221719742 		0.7982774323220904  0.487691676038487 		Uiso   ? 		O 		-0.99049
O 1.0  		0.5034624081401922 		0.04828528358771434  0.48572805655224127 		Uiso   ? 		O 		-0.99049
O 1.0  		0.250847936687394 		0.2979555304315056  0.48929827379996077 		Uiso   ? 		O 		-0.99049
O 1.0  		0.0011776898436027554 		0.5488034671188996  0.487513165176101 		Uiso   ? 		O 		-0.99049
O 1.0  		0.003336787890207899 		0.05221091639972364  0.795265891929524 		Uiso   ? 		O 		-0.98738
O 1.0  		0.5036586897807926 		0.5513551284467056  0.7995501526267874 		Uiso   ? 		O 		-0.98738
O 1.0  		0.25261447145279814 		0.801025375290497  0.8007997286634891 		Uiso   ? 		O 		-0.98738
O 1.0  		0.7529363733433829 		0.30364769800891905  0.7997286634891735 		Uiso   ? 		O 		-0.98738
O 1.0  		0.7513661202185793 		0.8018105018528987  0.8027633481497349 		Uiso   ? 		O 		-0.98738
O 1.0  		0.5032661264995918 		0.05260347968092457  0.7977650440029277 		Uiso   ? 		O 		-0.98738
O 1.0  		0.25457728785880285 		0.301488599962314  0.7974080222781557 		Uiso   ? 		O 		-0.98738
O 1.0  		0.004318196093210192 		0.5521402550091076  0.7988361091772435 		Uiso   ? 		O 		-0.98738
O 1.0  		0.9876892155015389 		0.32641636831857296  0.367375354790339 		Uiso   ? 		O 		-0.61313
O 1.0  		0.48717103197035366 		0.8294862131775643  0.3698745068637427 		Uiso   ? 		O 		-0.61313
O 1.0  		0.23789334840776333 		0.0847936687394008  0.3641621592673914 		Uiso   ? 		O 		-0.61313
O 1.0  		0.7329156460021355 		0.5796196846931726  0.36594726789125115 		Uiso   ? 		O 		-0.61313
O 1.0  		0.7380189686577476 		0.08204572577099428  0.36719684392795304 		Uiso   ? 		O 		-0.61313
O 1.0  		0.4828528358771434 		0.33485647886439296  0.36576875702886524 		Uiso   ? 		O 		-0.61313
O 1.0  		0.23063092770554613 		0.5864895421141888  0.3621985397811457 		Uiso   ? 		O 		-0.61313
O 1.0  		0.9833710194083286 		0.8343932541925759  0.36398364840500547 		Uiso   ? 		O 		-0.61313
O 1.0  		0.9906334401105458 		0.3336787890207902  0.6770917010300077 		Uiso   ? 		O 		-0.61725
O 1.0  		0.4854044972049494 		0.8320378745053703  0.6772702118923937 		Uiso   ? 		O 		-0.61725
O 1.0  		0.23573425036115825 		0.08440110545819987  0.6749495706813761 		Uiso   ? 		O 		-0.61725
O 1.0  		0.7409631932667546 		0.5823676276615791  0.6763776575804639 		Uiso   ? 		O 		-0.61725
O 1.0  		0.7378226870171471 		0.08322341561459708  0.6758421249933059 		Uiso   ? 		O 		-0.61725
O 1.0  		0.487759876892155 		0.3307345644117832  0.6781627662043236 		Uiso   ? 		O 		-0.61725
O 1.0  		0.2335751523145531 		0.5847230073487847  0.6726289294703582 		Uiso   ? 		O 		-0.61725
O 1.0  		0.9890631869857421 		0.8349820991143772  0.675485103268534 		Uiso   ? 		O 		-0.61725
O 1.0  		0.9052509264493437 		0.22356478864392942  0.3480961816526536 		Uiso   ? 		O 		-0.65400
O 1.0  		0.40237736323095274 		0.7282048866277244  0.34595405130402185 		Uiso   ? 		O 		-0.65400
O 1.0  		0.15388480623076436 		0.9794453865963194  0.34524000785447795 		Uiso   ? 		O 		-0.65400
O 1.0  		0.6544029897619497 		0.4734313171283211  0.3513093771756012 		Uiso   ? 		O 		-0.65400
O 1.0  		0.6518513284341435 		0.9792491049557189  0.34666809475356575 		Uiso   ? 		O 		-0.65400
O 1.0  		0.4021810815903524 		0.23023836442434523  0.34898873596458346 		Uiso   ? 		O 		-0.65400
O 1.0  		0.15290339802776207 		0.47892720306513414  0.3477391599278816 		Uiso   ? 		O 		-0.65400
O 1.0  		0.9015215752779349 		0.7244755354563156  0.34470447526732007 		Uiso   ? 		O 		-0.65400
O 1.0  		0.906232334652346 		0.2320048991897494  0.6588835930666381 		Uiso   ? 		O 		-0.65069
O 1.0  		0.40375133471515606 		0.7268309151435212  0.6588835930666381 		Uiso   ? 		O 		-0.65069
O 1.0  		0.15388480623076436 		0.9798379498775203  0.6588835930666381 		Uiso   ? 		O 		-0.65069
O 1.0  		0.6565620878085549 		0.47971232962753596  0.659597636516182 		Uiso   ? 		O 		-0.65069
O 1.0  		0.6565620878085547 		0.9790528233151186  0.6574555061675503 		Uiso   ? 		O 		-0.65069
O 1.0  		0.40453646127755793 		0.22493876012813266  0.6590621039290242 		Uiso   ? 		O 		-0.65069
O 1.0  		0.15251083474656113 		0.4779457948621318  0.6554918866813046 		Uiso   ? 		O 		-0.65069
O 1.0  		0.9034843916839395 		0.7327193643615352  0.6531712454702868 		Uiso   ? 		O 		-0.65069
O 1.0  		0.02453520507505809 		0.15133314490295838  0.3173923133222657 		Uiso   ? 		O 		-0.66145
O 1.0  		0.518576094466428 		0.65028107530934  0.314893161248862 		Uiso   ? 		O 		-0.66145
O 1.0  		0.2714575089504428 		0.9019141385591357  0.31685678073510776 		Uiso   ? 		O 		-0.66145
O 1.0  		0.7721719741222286 		0.39923685698134537  0.3154286938360199 		Uiso   ? 		O 		-0.66145
O 1.0  		0.7709942842786257 		0.8991661955907294  0.314893161248862 		Uiso   ? 		O 		-0.66145
O 1.0  		0.5205389108724326 		0.1511368632623579  0.3181063567718096 		Uiso   ? 		O 		-0.66145
O 1.0  		0.2708686640286414 		0.4011996733873501  0.32042699798282726 		Uiso   ? 		O 		-0.66145
O 1.0  		0.021002135544249692 		0.6530290182777464  0.3141791177993181 		Uiso   ? 		O 		-0.66145
O 1.0  		0.022179825387852514 		0.15525877771496768  0.6269301486995484 		Uiso   ? 		O 		-0.65765
O 1.0  		0.524071980403241 		0.6536178631995478  0.6278227030114782 		Uiso   ? 		O 		-0.65765
O 1.0  		0.2724389171534451 		0.9046620815275422  0.6255020618004606 		Uiso   ? 		O 		-0.65765
O 1.0  		0.775312480371836 		0.4023773632309528  0.6283582355986362 		Uiso   ? 		O 		-0.65765
O 1.0  		0.7755087620124365 		0.9019141385591357  0.6278227030114782 		Uiso   ? 		O 		-0.65765
O 1.0  		0.5252496702468439 		0.15211827146536022  0.6274656812867063 		Uiso   ? 		O 		-0.65765
O 1.0  		0.2720463538722442 		0.4013959550279505  0.6272871704243204 		Uiso   ? 		O 		-0.65765
O 1.0  		0.02296495195025434 		0.6547955530431505  0.6287152573234082 		Uiso   ? 		O 		-0.65765
O 1.0  		0.08204572577099427 		0.2634099616858238  0.2991842053588961 		Uiso   ? 		O 		-0.62132
O 1.0  		0.5809936561773759 		0.7615727655298035  0.2968635641478784 		Uiso   ? 		O 		-0.62132
O 1.0  		0.3362304503485962 		0.012365743357829282  0.2993627162212821 		Uiso   ? 		O 		-0.62132
O 1.0  		0.8287010866151625 		0.5120988003266127  0.29525696638640464 		Uiso   ? 		O 		-0.62132
O 1.0  		0.8343932541925759 		0.014917404685635325  0.2986486727717382 		Uiso   ? 		O 		-0.62132
O 1.0  		0.5833490358645814 		0.26242855348282146  0.29989824880844 		Uiso   ? 		O 		-0.62132
O 1.0  		0.3299494378493813 		0.5117062370454117  0.2993627162212821 		Uiso   ? 		O 		-0.62132
O 1.0  		0.08557879530180261 		0.7658909616230137  0.29668505328549244 		Uiso   ? 		O 		-0.62132
O 1.0  		0.08322341561459706 		0.2612508636392187  0.6094360841857228 		Uiso   ? 		O 		-0.61690
O 1.0  		0.5851155706299855 		0.763928145217009  0.6121137471215123 		Uiso   ? 		O 		-0.61690
O 1.0  		0.3328936624583883 		0.01511368632623579  0.6087220407361789 		Uiso   ? 		O 		-0.61690
O 1.0  		0.8355709440361786 		0.5166132780604233  0.607472464699477 		Uiso   ? 		O 		-0.61690
O 1.0  		0.8391040135669872 		0.019235600778845553  0.6097931059104946 		Uiso   ? 		O 		-0.61690
O 1.0  		0.5870783870359902 		0.26399880660762515  0.6105071493600386 		Uiso   ? 		O 		-0.61690
O 1.0  		0.3348564788643929 		0.513080208529615  0.6080079972866349 		Uiso   ? 		O 		-0.61690
O 1.0  		0.08695276678600587 		0.7662835249042146  0.607472464699477 		Uiso   ? 		O 		-0.61690
O 1.0  		0.940385340116827 		0.3372118585515985  0.3484532033774255 		Uiso   ? 		O 		-0.62682
O 1.0  		0.4394745933044406 		0.8379263237233843  0.3505953337260572 		Uiso   ? 		O 		-0.62682
O 1.0  		0.19235600778845552 		0.08989699139501288  0.34524000785447795 		Uiso   ? 		O 		-0.62682
O 1.0  		0.6869857421016268 		0.588256076879593  0.34524000785447795 		Uiso   ? 		O 		-0.62682
O 1.0  		0.6899299667106338 		0.0887193015514101  0.3480961816526536 		Uiso   ? 		O 		-0.62682
O 1.0  		0.4396708749450412 		0.34270774448841157  0.3457755404416359 		Uiso   ? 		O 		-0.62682
O 1.0  		0.18450474216443688 		0.5913965831292004  0.34238383405630235 		Uiso   ? 		O 		-0.62682
O 1.0  		0.9382262420702219 		0.8359635073173797  0.3422053231939164 		Uiso   ? 		O 		-0.62682
O 1.0  		0.9439184096476353 		0.34447427925381574  0.6592406147914102 		Uiso   ? 		O 		-0.62805
O 1.0  		0.4402597198668425 		0.8391040135669872  0.6585265713418662 		Uiso   ? 		O 		-0.62805
O 1.0  		0.19078575466365177 		0.09127096287921614  0.6570984844427784 		Uiso   ? 		O 		-0.62805
O 1.0  		0.6918927831166384 		0.5921817096916023  0.6578125278923223 		Uiso   ? 		O 		-0.62805
O 1.0  		0.691696501476038 		0.09009327303561335  0.6581695496170942 		Uiso   ? 		O 		-0.62805
O 1.0  		0.44222253627284724 		0.3366230136297972  0.6590621039290242 		Uiso   ? 		O 		-0.62805
O 1.0  		0.18960806482004897 		0.5915928647698009  0.6490654956354095 		Uiso   ? 		O 		-0.62805
O 1.0  		0.9423481565228315 		0.8442073362225991  0.6549563540941467 		Uiso   ? 		O 		-0.62805
O 1.0  		0.9115319389485586 		0.18430846052383645  0.31899891108373946 		Uiso   ? 		O 		-0.63979
O 1.0  		0.4061067144023616 		0.6889485585076315  0.3177493350470376 		Uiso   ? 		O 		-0.63979
O 1.0  		0.1591844105269769 		0.939600213554425  0.3134650743497742 		Uiso   ? 		O 		-0.63979
O 1.0  		0.6602914389799636 		0.43358614408642676  0.3232831717810029 		Uiso   ? 		O 		-0.63979
O 1.0  		0.6595063124175616 		0.9366559889454181  0.31971295453328336 		Uiso   ? 		O 		-0.63979
O 1.0  		0.40944350229256954 		0.1884303749764462  0.31971295453328336 		Uiso   ? 		O 		-0.63979
O 1.0  		0.15938069216757741 		0.4404560015074431  0.3191774219461255 		Uiso   ? 		O 		-0.63979
O 1.0  		0.9076063061365492 		0.6865931788204259  0.3134650743497742 		Uiso   ? 		O 		-0.63979
O 1.0  		0.9123170655109604 		0.19215972614785504  0.6285367464610222 		Uiso   ? 		O 		-0.63868
O 1.0  		0.4114063186985742 		0.6871820237422273  0.6280012138738642 		Uiso   ? 		O 		-0.63868
O 1.0  		0.16095094529238108 		0.9401890584762265  0.6271086595619344 		Uiso   ? 		O 		-0.63868
O 1.0  		0.6628431003077696 		0.4396708749450412  0.629429300772952 		Uiso   ? 		O 		-0.63868
O 1.0  		0.6636282268701713 		0.9386188053514227  0.6265731269747764 		Uiso   ? 		O 		-0.63868
O 1.0  		0.4121914452609761 		0.18548615036743923  0.6283582355986362 		Uiso   ? 		O 		-0.63868
O 1.0  		0.1631100433389862 		0.4377080585390365  0.6249665292133026 		Uiso   ? 		O 		-0.63868
O 1.0  		0.9113356573079581 		0.6926779096790403  0.6244309966261448 		Uiso   ? 		O 		-0.63868
O 1.0  		0.9560878713648642 		0.2889265749638842  0.36094896374444385 		Uiso   ? 		O 		-0.99633
O 1.0  		0.45615853275548013 		0.791407574901074  0.36184151805637377 		Uiso   ? 		O 		-0.99633
O 1.0  		0.209039947239495 		0.04141542616669807  0.35987789857012803 		Uiso   ? 		O 		-0.99633
O 1.0  		0.7038659631932668 		0.5397745116512782  0.36130598546921583 		Uiso   ? 		O 		-0.99633
O 1.0  		0.7091655674894793 		0.042200552729099935  0.36130598546921583 		Uiso   ? 		O 		-0.99633
O 1.0  		0.4541957163494756 		0.29481502418189814  0.36255556150591767 		Uiso   ? 		O 		-0.99633
O 1.0  		0.20138496325607688 		0.5456629608692921  0.35916385512058413 		Uiso   ? 		O 		-0.99633
O 1.0  		0.9588358143332706 		0.7906224483386721  0.36130598546921583 		Uiso   ? 		O 		-0.99633
O 1.0  		0.9598172225362729 		0.2965815589473023  0.6717363751584284 		Uiso   ? 		O 		-0.99850
O 1.0  		0.45733622259908296 		0.7919964198228755  0.6717363751584284 		Uiso   ? 		O 		-0.99850
O 1.0  		0.2053105960680862 		0.04357452421330319  0.6713793534336565 		Uiso   ? 		O 		-0.99850
O 1.0  		0.7095581307706803 		0.544288989385089  0.6729859511951303 		Uiso   ? 		O 		-0.99850
O 1.0  		0.7091655674894793 		0.04200427108849947  0.6712008425712704 		Uiso   ? 		O 		-0.99850
O 1.0  		0.4592990390050876 		0.2893191382450851  0.6733429729199022 		Uiso   ? 		O 		-0.99850
O 1.0  		0.20531059606808616 		0.5429150179008857  0.6688802013602528 		Uiso   ? 		O 		-0.99850
O 1.0  		0.9580506877708688 		0.7963146159160858  0.6694157339474107 		Uiso   ? 		O 		-0.99850
O 1.0  		0.9517696752716539 		0.19392626091325924  0.3518449097627591 		Uiso   ? 		O 		-0.93476
O 1.0  		0.44889611205326296 		0.6973886690534514  0.3502383120012853 		Uiso   ? 		O 		-0.93476
O 1.0  		0.19961842849067263 		0.9468626342566422  0.34827469251503956 		Uiso   ? 		O 		-0.93476
O 1.0  		0.7015105835060612 		0.44379278939765093  0.35363001838661884 		Uiso   ? 		O 		-0.93476
O 1.0  		0.6995477671000565 		0.9468626342566422  0.3539870401113908 		Uiso   ? 		O 		-0.93476
O 1.0  		0.45007380189686585 		0.1984407386470699  0.3541655509737768 		Uiso   ? 		O 		-0.93476
O 1.0  		0.197655612084668 		0.45007380189686585  0.3538085292490048 		Uiso   ? 		O 		-0.93476
O 1.0  		0.9494142955844482 		0.6962109792098486  0.34970277941412736 		Uiso   ? 		O 		-0.93476
O 1.0  		0.9521622385528548 		0.20001099177187362  0.6629893429015156 		Uiso   ? 		O 		-0.93420
O 1.0  		0.4502700835374662 		0.6964072608504491  0.6626323211767436 		Uiso   ? 		O 		-0.93420
O 1.0  		0.20001099177187356 		0.9486291690220464  0.6619182777271998 		Uiso   ? 		O 		-0.93420
O 1.0  		0.7028845549902645 		0.4475221405690597  0.6645959406629893 		Uiso   ? 		O 		-0.93420
O 1.0  		0.7020994284278625 		0.9478440424596445  0.6622752994519717 		Uiso   ? 		O 		-0.93420
O 1.0  		0.4532143081464733 		0.19372997927265875  0.6633463646262876 		Uiso   ? 		O 		-0.93420
O 1.0  		0.20099239997487595 		0.4485035487720621  0.6620967885895858 		Uiso   ? 		O 		-0.93420
O 1.0  		0.9496105772250487 		0.7013143018654607  0.6619182777271998 		Uiso   ? 		O 		-0.93420
O 1.0  		0.0013739714842032358 		0.29520758746309905  0.3322087149003017 		Uiso   ? 		O 		-0.98979
O 1.0  		0.5003219018905848 		0.7959220526348847  0.3348863778360913 		Uiso   ? 		O 		-0.98979
O 1.0  		0.25359587965580055 		0.046518748822310156  0.33042360627644196 		Uiso   ? 		O 		-0.98979
O 1.0  		0.747833050687771 		0.5458592425098927  0.3313161605883718 		Uiso   ? 		O 		-0.98979
O 1.0  		0.7517586834997803 		0.04887412850951574  0.3327442474874597 		Uiso   ? 		O 		-0.98979
O 1.0  		0.4993404936875825 		0.2979555304315056  0.33435084524893344 		Uiso   ? 		O 		-0.98979
O 1.0  		0.24633345895358327 		0.5484109038376986  0.33113764972598586 		Uiso   ? 		O 		-0.98979
O 1.0  		0.002159098046605064 		0.7970997424784876  0.33113764972598586 		Uiso   ? 		O 		-0.98979
O 1.0  		0.003140506249607419 		0.3007034733999121  0.6422820828647423 		Uiso   ? 		O 		-0.98832
O 1.0  		0.5013033100935871 		0.7982774323220904  0.6431746371766722 		Uiso   ? 		O 		-0.98832
O 1.0  		0.25006281012499215 		0.04808900194711388  0.6415680394151985 		Uiso   ? 		O 		-0.98832
O 1.0  		0.7533289366245839 		0.5491960304001006  0.6435316589014441 		Uiso   ? 		O 		-0.98832
O 1.0  		0.7539177815463853 		0.05024809999371899  0.6413895285528125 		Uiso   ? 		O 		-0.98832
O 1.0  		0.5040512530619936 		0.29501130582249857  0.6447812349381461 		Uiso   ? 		O 		-0.98832
O 1.0  		0.2512404999685949 		0.5482146221970983  0.6403184633784966 		Uiso   ? 		O 		-0.98832
O 1.0  		0.002355379687205529 		0.8006328120092959  0.6415680394151985 		Uiso   ? 		O 		-0.98832
O 1.0  		0.8528437284090196 		0.22258338044092707  0.16762169978043165 		Uiso   ? 		O 		-0.92315
O 1.0  		0.35016644683122916 		0.7282048866277244  0.16547956943179995 		Uiso   ? 		O 		-0.92315
O 1.0  		0.10422555115884677 		0.9765011619873123  0.16744318891804566 		Uiso   ? 		O 		-0.92315
O 1.0  		0.6004255385968219 		0.47323503548772067  0.1672646780556597 		Uiso   ? 		O 		-0.92315
O 1.0  		0.5986590038314176 		0.9741457823001068  0.16476552598225605 		Uiso   ? 		O 		-0.92315
O 1.0  		0.34938132026882734 		0.22945323786194335  0.17119191702815117 		Uiso   ? 		O 		-0.92315
O 1.0  		0.10029991834683749 		0.47382388040952206  0.16976383012906335 		Uiso   ? 		O 		-0.92315
O 1.0  		0.8500957854406131 		0.7272234784247221  0.1667291454685018 		Uiso   ? 		O 		-0.92315
O 1.0  		0.8493106588782112 		0.22847182965894103  0.47180420928613503 		Uiso   ? 		O 		-0.63778
O 1.0  		0.3535032347214371 		0.730952829596131  0.4748388939466967 		Uiso   ? 		O 		-0.63778
O 1.0  		0.10029991834683746 		0.9782676967527166  0.47055463324943325 		Uiso   ? 		O 		-0.63778
O 1.0  		0.5990515671126186 		0.47912348470573457  0.4753744265338546 		Uiso   ? 		O 		-0.63778
O 1.0  		0.6008181018780226 		0.9819970479241255  0.47180420928613503 		Uiso   ? 		O 		-0.63778
O 1.0  		0.3519329815966334 		0.23180861754914894  0.47430336135953877 		Uiso   ? 		O 		-0.63778
O 1.0  		0.09735569373783051 		0.4808900194711388  0.47233974187329303 		Uiso   ? 		O 		-0.63778
O 1.0  		0.8497032221594121 		0.7303639846743296  0.46966207893750334 		Uiso   ? 		O 		-0.63778
O 1.0  		0.8514697569248163 		0.23279002575215124  0.7816990663881896 		Uiso   ? 		O 		-0.65308
O 1.0  		0.3489887569876264 		0.7274197600653226  0.7829486424248916 		Uiso   ? 		O 		-0.65308
O 1.0  		0.09814082030023234 		0.9808193580805226  0.7833056641496635 		Uiso   ? 		O 		-0.65308
O 1.0  		0.6002292569562213 		0.47990861126813644  0.7840197075992075 		Uiso   ? 		O 		-0.65308
O 1.0  		0.5994441303938194 		0.9816044846429246  0.7820560881129618 		Uiso   ? 		O 		-0.65308
O 1.0  		0.35212926323723387 		0.2308272093461466  0.7866973705349971 		Uiso   ? 		O 		-0.65308
O 1.0  		0.10226273475284214 		0.482263990955342  0.7822345989753476 		Uiso   ? 		O 		-0.65308
O 1.0  		0.8465627159098047 		0.7307565479555305  0.7750941644799085 		Uiso   ? 		O 		-0.65308
O 1.0  		0.9865115256579361 		0.4116026003391747  0.14709295060604438 		Uiso   ? 		O 		-0.82364
O 1.0  		0.4875635952515545 		0.9115319389485586  0.14744997233081633 		Uiso   ? 		O 		-0.82364
O 1.0  		0.23436027887695496 		0.16095094529238113  0.14352273335832488 		Uiso   ? 		O 		-0.82364
O 1.0  		0.7370375604547453 		0.6585249042145594  0.14655741801888644 		Uiso   ? 		O 		-0.82364
O 1.0  		0.7350747440487407 		0.16153979021418252  0.14298720077116694 		Uiso   ? 		O 		-0.82364
O 1.0  		0.4857970604861504 		0.41238772690157655  0.1433442224959389 		Uiso   ? 		O 		-0.82364
O 1.0  		0.236911940204761 		0.6648059167137743  0.13905996179867547 		Uiso   ? 		O 		-0.82364
O 1.0  		0.9910260033917467 		0.9144761635575654  0.1419161355968511 		Uiso   ? 		O 		-0.82364
O 1.0  		0.9888669053451418 		0.41081747377677286  0.4557382316713972 		Uiso   ? 		O 		-0.62932
O 1.0  		0.4850119339237485 		0.9127096287921614  0.45591674253378317 		Uiso   ? 		O 		-0.62932
O 1.0  		0.23848219332956475 		0.16762452107279693  0.45341759046037955 		Uiso   ? 		O 		-0.62932
O 1.0  		0.7368412788141449 		0.6667687331197789  0.45520269908423927 		Uiso   ? 		O 		-0.62932
O 1.0  		0.7407669116261542 		0.1662505495885937  0.4560952533961692 		Uiso   ? 		O 		-0.62932
O 1.0  		0.4865821870485523 		0.415528233151184  0.45680929684571314 		Uiso   ? 		O 		-0.62932
O 1.0  		0.2390710382513661 		0.6655910432761761  0.45341759046037955 		Uiso   ? 		O 		-0.62932
O 1.0  		0.9872966522203379 		0.9152612901199675  0.4528820578732216 		Uiso   ? 		O 		-0.62932
O 1.0  		0.9947553545631556 		0.41572451479178446  0.7608132954890304 		Uiso   ? 		O 		-0.64745
O 1.0  		0.4850119339237485 		0.9182055147289744  0.7609918063514165 		Uiso   ? 		O 		-0.64745
O 1.0  		0.24201526286037311 		0.16566170466679228  0.7625984041128904 		Uiso   ? 		O 		-0.64745
O 1.0  		0.7378226870171471 		0.6756014069467999  0.7586711651403988 		Uiso   ? 		O 		-0.64745
O 1.0  		0.7409631932667546 		0.16997990076000252  0.7609918063514165 		Uiso   ? 		O 		-0.64745
O 1.0  		0.4918817913447648 		0.4167059229947868  0.7622413823881183 		Uiso   ? 		O 		-0.64745
O 1.0  		0.2402487280949689 		0.6703018026505874  0.7600992520394867 		Uiso   ? 		O 		-0.64745
O 1.0  		0.9894557502669431 		0.9176166698071729  0.7613488280761884 		Uiso   ? 		O 		-0.64745
O 1.0  		0.16860592927579923 		0.2612508636392187  0.2136775022760135 		Uiso   ? 		O 		-0.62788
O 1.0  		0.6736385905407952 		0.7607876389674015  0.21242792623931167 		Uiso   ? 		O 		-0.62788
O 1.0  		0.4186687394007914 		0.013150869920231142  0.2108213284778379 		Uiso   ? 		O 		-0.62788
O 1.0  		0.9172241065259721 		0.5109211104830099  0.209928774165908 		Uiso   ? 		O 		-0.62788
O 1.0  		0.9211497393379813 		0.01020664531122417  0.21189239365215376 		Uiso   ? 		O 		-0.62788
O 1.0  		0.6734423089001947 		0.2604657370768168  0.21492707831271535 		Uiso   ? 		O 		-0.62788
O 1.0  		0.41965014760379366 		0.5097434206394071  0.21564112176225925 		Uiso   ? 		O 		-0.62788
O 1.0  		0.17115759060360525 		0.7580396959989951  0.21207090451453972 		Uiso   ? 		O 		-0.62788
O 1.0  		0.16723195779159597 		0.2643913698888261  0.5216087398918224 		Uiso   ? 		O 		-0.63406
O 1.0  		0.6644133534325734 		0.7654983983418128  0.5210732073046646 		Uiso   ? 		O 		-0.63406
O 1.0  		0.415528233151184 		0.01629137616983858  0.5198236312679627 		Uiso   ? 		O 		-0.63406
O 1.0  		0.9136910369951637 		0.5142578983732178  0.5153608597083132 		Uiso   ? 		O 		-0.63406
O 1.0  		0.920168331134979 		0.013543433201432073  0.517681500919331 		Uiso   ? 		O 		-0.63406
O 1.0  		0.6632356635889706 		0.2651764964512279  0.5203591638551206 		Uiso   ? 		O 		-0.63406
O 1.0  		0.41768733119778906 		0.5136690534514164  0.5187525660936468 		Uiso   ? 		O 		-0.63406
O 1.0  		0.16664311286979455 		0.7635355819358082  0.5198236312679627 		Uiso   ? 		O 		-0.63406
O 1.0  		0.16860592927579923 		0.2687095659820363  0.832574662168193 		Uiso   ? 		O 		-0.82548
O 1.0  		0.663824508510772 		0.7700128760756234  0.8347167925168247 		Uiso   ? 		O 		-0.82548
O 1.0  		0.4151356698699831 		0.02080585390364927  0.8304325318195613 		Uiso   ? 		O 		-0.82548
O 1.0  		0.9180092330883738 		0.5164169964198229  0.832039129581035 		Uiso   ? 		O 		-0.82548
O 1.0  		0.9178129514477734 		0.020020727341247407  0.8363233902782984 		Uiso   ? 		O 		-0.82548
O 1.0  		0.6673575780415804 		0.26733559449783306  0.8336457273425089 		Uiso   ? 		O 		-0.82548
O 1.0  		0.41493938822938253 		0.516024433138622  0.8298969992324033 		Uiso   ? 		O 		-0.82548
O 1.0  		0.16762452107279688 		0.7678537780290183  0.8313250861314911 		Uiso   ? 		O 		-0.82548
O 1.0  		0.02806827460586646 		0.09244865272281892  0.19297024223924025 		Uiso   ? 		O 		-0.65043
O 1.0  		0.5205389108724326 		0.5968924690660135  0.19029257930345064 		Uiso   ? 		O 		-0.65043
O 1.0  		0.27381288863764836 		0.8467589975504052  0.1933272639640122 		Uiso   ? 		O 		-0.65043
O 1.0  		0.7776678600590416 		0.34643709565982034  0.18922151412913477 		Uiso   ? 		O 		-0.65043
O 1.0  		0.7735459456064318 		0.8481329690346083  0.19011406844106465 		Uiso   ? 		O 		-0.65043
O 1.0  		0.5256422335280447 		0.09676684881602915  0.19404130741355613 		Uiso   ? 		O 		-0.65043
O 1.0  		0.2745980152000503 		0.34859619370642553  0.19511237258787198 		Uiso   ? 		O 		-0.65043
O 1.0  		0.022572388669053416 		0.5974813139878149  0.18832895981720488 		Uiso   ? 		O 		-0.65043
O 1.0  		0.0239463601532567 		0.09715941209723007  0.5044716971027687 		Uiso   ? 		O 		-0.64502
O 1.0  		0.521127755794234 		0.5982664405502167  0.5053642514146987 		Uiso   ? 		O 		-0.64502
O 1.0  		0.2706723823880409 		0.8481329690346083  0.5037576536532249 		Uiso   ? 		O 		-0.64502
O 1.0  		0.772368255762829 		0.3480073487846241  0.5044716971027687 		Uiso   ? 		O 		-0.64502
O 1.0  		0.7713868475598267 		0.8481329690346083  0.5025080776165229 		Uiso   ? 		O 		-0.64502
O 1.0  		0.5230905722002387 		0.10010363670623705  0.502151055891751 		Uiso   ? 		O 		-0.64502
O 1.0  		0.2710649456692419 		0.34879247534702595  0.5026865884789089 		Uiso   ? 		O 		-0.64502
O 1.0  		0.019628164060046444 		0.5964999057848126  0.5066138274514005 		Uiso   ? 		O 		-0.64502
O 1.0  		0.02316123359085484 		0.10363670623704542  0.8025848372873491 		Uiso   ? 		O 		-0.82296
O 1.0  		0.5234831354814397 		0.6002292569562213  0.8079401631589282 		Uiso   ? 		O 		-0.82296
O 1.0  		0.27440173355944975 		0.850488348721814  0.8061550545350685 		Uiso   ? 		O 		-0.82296
O 1.0  		0.7760976069342379 		0.35212926323723387  0.8070476088469983 		Uiso   ? 		O 		-0.82296
O 1.0  		0.7745273538094342 		0.8502920670812135  0.8107963369571038 		Uiso   ? 		O 		-0.82296
O 1.0  		0.5283901764964513 		0.10049619998743799  0.8072261197093844 		Uiso   ? 		O 		-0.82296
O 1.0  		0.27656083160605494 		0.351344136674832  0.8015137721130332 		Uiso   ? 		O 		-0.82296
O 1.0  		0.027086866402864108 		0.6023883550028265  0.8040129241864367 		Uiso   ? 		O 		-0.82296
O 1.0  		0.8438147729413983 		0.1862712769298411  0.19654045948695978 		Uiso   ? 		O 		-0.65870
O 1.0  		0.3438854343320143 		0.6879671503046291  0.19297024223924025 		Uiso   ? 		O 		-0.65870
O 1.0  		0.09774825701903142 		0.9374411155078198  0.19761152466127566 		Uiso   ? 		O 		-0.65870
O 1.0  		0.5927705546134037 		0.43731549525783564  0.1974330137988897 		Uiso   ? 		O 		-0.65870
O 1.0  		0.5939482444570063 		0.9366559889454181  0.19511237258787198 		Uiso   ? 		O 		-0.65870
O 1.0  		0.3440817159726148 		0.19000062810124993  0.19850407897320554 		Uiso   ? 		O 		-0.65870
O 1.0  		0.09264493436341936 		0.43849318510143837  0.20028918759706532 		Uiso   ? 		O 		-0.65870
O 1.0  		0.8436184913007978 		0.689144840148232  0.1981470572484336 		Uiso   ? 		O 		-0.65870
O 1.0  		0.8445998995038001 		0.1890192198982476  0.5034006319284529 		Uiso   ? 		O 		-0.63870
O 1.0  		0.3444742792538157 		0.6920890647572389  0.5050072296899267 		Uiso   ? 		O 		-0.63870
O 1.0  		0.09284121600401979 		0.9374411155078198  0.5016155233045931 		Uiso   ? 		O 		-0.63870
O 1.0  		0.5910040198479996 		0.4418299729916463  0.5082204252128742 		Uiso   ? 		O 		-0.63870
O 1.0  		0.592966836254004 		0.9413667483198292  0.5026865884789089 		Uiso   ? 		O 		-0.63870
O 1.0  		0.34506312417561713 		0.19019690974185038  0.5025080776165229 		Uiso   ? 		O 		-0.63870
O 1.0  		0.09205608944161796 		0.44143740971044537  0.5044716971027687 		Uiso   ? 		O 		-0.63870
O 1.0  		0.8410668299729918 		0.6873783053828277  0.5003659472678913 		Uiso   ? 		O 		-0.63870
O 1.0  		0.8436184913007978 		0.19215972614785504  0.809725271782788 		Uiso   ? 		O 		-0.65737
O 1.0  		0.3403523648012059 		0.6881634319452296  0.8129384673057356 		Uiso   ? 		O 		-0.65737
O 1.0  		0.09146724451981655 		0.9405816217574273  0.8124029347185777 		Uiso   ? 		O 		-0.65737
O 1.0  		0.5923779913322027 		0.4404560015074431  0.8134739998928936 		Uiso   ? 		O 		-0.65737
O 1.0  		0.5910040198479994 		0.942937001444633  0.8125814455809636 		Uiso   ? 		O 		-0.65737
O 1.0  		0.34270774448841157 		0.19078575466365177  0.8154376193791392 		Uiso   ? 		O 		-0.65737
O 1.0  		0.09598172225362726 		0.4430076628352491  0.8107963369571038 		Uiso   ? 		O 		-0.65737
O 1.0  		0.8430296463789964 		0.6883597135858301  0.8027633481497349 		Uiso   ? 		O 		-0.65737
O 1.0  		0.9413667483198292 		0.407088122605364  0.16708616719327374 		Uiso   ? 		O 		-0.65104
O 1.0  		0.4428113811946485 		0.9081951510583506  0.1665506346061158 		Uiso   ? 		O 		-0.65104
O 1.0  		0.1913745995854532 		0.15781043904277373  0.1642299933950981 		Uiso   ? 		O 		-0.65104
O 1.0  		0.6901262483512343 		0.6575434960115571  0.16637212374372984 		Uiso   ? 		O 		-0.65104
O 1.0  		0.6920890647572389 		0.15663274919917092  0.1667291454685018 		Uiso   ? 		O 		-0.65104
O 1.0  		0.44025971986684254 		0.407088122605364  0.16173084132169444 		Uiso   ? 		O 		-0.65104
O 1.0  		0.19137459958545316 		0.6545992714025501  0.1597672218354487 		Uiso   ? 		O 		-0.65104
O 1.0  		0.944310972928836 		0.9079988694177502  0.16119530873453652 		Uiso   ? 		O 		-0.65104
O 1.0  		0.9419555932416307 		0.4072844042459645  0.47287527446045097 		Uiso   ? 		O 		-0.64179
O 1.0  		0.4384931851014383 		0.908783995980152  0.47644549170817047 		Uiso   ? 		O 		-0.64179
O 1.0  		0.19215972614785504 		0.16114722693298159  0.4712686766989772 		Uiso   ? 		O 		-0.64179
O 1.0  		0.6901262483512343 		0.6598988756987627  0.47305378532283693 		Uiso   ? 		O 		-0.64179
O 1.0  		0.6922853463978395 		0.1589881288863765  0.4734108070476089 		Uiso   ? 		O 		-0.64179
O 1.0  		0.4400634382262421 		0.40944350229256954  0.4734108070476089 		Uiso   ? 		O 		-0.64179
O 1.0  		0.1923560077884555 		0.6589174674957604  0.47233974187329303 		Uiso   ? 		O 		-0.64179
O 1.0  		0.9409741850386281 		0.9074100244959489  0.47251825273567893 		Uiso   ? 		O 		-0.64179
O 1.0  		0.942937001444633 		0.412976571823378  0.7752726753422946 		Uiso   ? 		O 		-0.64789
O 1.0  		0.43908203002323976 		0.9140836002763646  0.7791999143147862 		Uiso   ? 		O 		-0.64789
O 1.0  		0.1935336976320583 		0.16075466365178068  0.7738445884432068 		Uiso   ? 		O 		-0.64789
O 1.0  		0.6909113749136361 		0.6650021983543748  0.7754511862046807 		Uiso   ? 		O 		-0.64789
O 1.0  		0.691696501476038 		0.16409145154198856  0.7774148056909265 		Uiso   ? 		O 		-0.64789
O 1.0  		0.4428113811946486 		0.4102286288549714  0.772416501544119 		Uiso   ? 		O 		-0.64789
O 1.0  		0.19137459958545316 		0.6644133534325734  0.7720594798193471 		Uiso   ? 		O 		-0.64789
O 1.0  		0.9390113686326235 		0.9123170655109604  0.7784858708652421 		Uiso   ? 		O 		-0.64789
O 1.0  		0.20884366559889456 		0.20452546950568434  0.14727146146843034 		Uiso   ? 		O 		-1.00338
O 1.0  		0.7091655674894793 		0.7009217385842599  0.14816401578036023 		Uiso   ? 		O 		-1.00338
O 1.0  		0.4616544186922931 		0.9541250549588594  0.14977061354183402 		Uiso   ? 		O 		-1.00338
O 1.0  		0.9600135041768734 		0.4541957163494756  0.14816401578036023 		Uiso   ? 		O 		-1.00338
O 1.0  		0.9621726022234784 		0.9556953080836631  0.14602188543172853 		Uiso   ? 		O 		-1.00338
O 1.0  		0.7097544124112808 		0.20472175114628477  0.14762848319320232 		Uiso   ? 		O 		-1.00338
O 1.0  		0.45812134916148484 		0.4538031530682746  0.14887805922990413 		Uiso   ? 		O 		-1.00338
O 1.0  		0.20648828591168894 		0.7032771182714654  0.1447723093950267 		Uiso   ? 		O 		-1.00338
O 1.0  		0.20962879216129643 		0.20884366559889456  0.4594869597815027 		Uiso   ? 		O 		-0.98766
O 1.0  		0.7089692858488789 		0.7077915960052761  0.45930844891911676 		Uiso   ? 		O 		-0.98766
O 1.0  		0.45910275736448714 		0.9541250549588594  0.4587729163319588 		Uiso   ? 		O 		-0.98766
O 1.0  		0.9584432510520696 		0.4539994347088751  0.45680929684571314 		Uiso   ? 		O 		-0.98766
O 1.0  		0.9572655612084667 		0.9529473651152567  0.45752334029525704 		Uiso   ? 		O 		-0.98766
O 1.0  		0.7113246655360845 		0.206488285911689  0.4602010032310466 		Uiso   ? 		O 		-0.98766
O 1.0  		0.45831763080208526 		0.45556968783367885  0.45859440546957286 		Uiso   ? 		O 		-0.98766
O 1.0  		0.21080648200489915 		0.7054362163180705  0.45823738374480094 		Uiso   ? 		O 		-0.98766
O 1.0  		0.21375070661390616 		0.2092362288800955  0.7652760670486799 		Uiso   ? 		O 		-0.98800
O 1.0  		0.7085767225676779 		0.7160354249104957  0.7668826648101538 		Uiso   ? 		O 		-0.98800
O 1.0  		0.459887883926889 		0.9627614471452799  0.7629554258376623 		Uiso   ? 		O 		-0.98800
O 1.0  		0.9639391369888826 		0.46106557377049184  0.7629554258376623 		Uiso   ? 		O 		-0.98800
O 1.0  		0.958246969411469 		0.9621726022234786  0.7658115996358379 		Uiso   ? 		O 		-0.98800
O 1.0  		0.7121097920984863 		0.21394698825450664  0.7643835127367501 		Uiso   ? 		O 		-0.98800
O 1.0  		0.46263582689529553 		0.4592990390050876  0.7627769149752762 		Uiso   ? 		O 		-0.98800
O 1.0  		0.2098250738018968 		0.7138763268638905  0.7629554258376623 		Uiso   ? 		O 		-0.98800
O 1.0  		0.8047547264619056 		0.2463334589535833  0.17190596047769507 		Uiso   ? 		O 		-1.02415
O 1.0  		0.3030588530871176 		0.74744048740657  0.1701208518538353 		Uiso   ? 		O 		-1.02415
O 1.0  		0.0565291124929338 		0.9947553545631556  0.17101340616576519 		Uiso   ? 		O 		-1.02415
O 1.0  		0.5511588468061052 		0.4983590854845802  0.1761902211749585 		Uiso   ? 		O 		-1.02415
O 1.0  		0.5523365366497078 		0.9973070158909617  0.17422660168871276 		Uiso   ? 		O 		-1.02415
O 1.0  		0.29991834683751023 		0.24809999371898753  0.17601171031257254 		Uiso   ? 		O 		-1.02415
O 1.0  		0.05201463475912315 		0.49678883235977644  0.17333404737678287 		Uiso   ? 		O 		-1.02415
O 1.0  		0.802791910055901 		0.7484218956095724  0.17226298220246702 		Uiso   ? 		O 		-1.02415
O 1.0  		0.8000439670874945 		0.2486888386407889  0.49019082811189063 		Uiso   ? 		O 		-0.99476
O 1.0  		0.30168488160291435 		0.7509735569373783  0.48715614345132907 		Uiso   ? 		O 		-0.99476
O 1.0  		0.052603479680924506 		1.0000549588593681  0.4869776325889431 		Uiso   ? 		O 		-0.99476
O 1.0  		0.5484109038376986 		0.5013033100935871  0.4889412520751888 		Uiso   ? 		O 		-0.99476
O 1.0  		0.5517476917279066 		0.0027479429684065075  0.48662061086417113 		Uiso   ? 		O 		-0.99476
O 1.0  		0.29991834683751023 		0.24947396520319076  0.48947678466234673 		Uiso   ? 		O 		-0.99476
O 1.0  		0.047107593744111526 		0.5003219018905848  0.48572805655224127 		Uiso   ? 		O 		-0.99476
O 1.0  		0.7990625588844922 		0.7494033038125747  0.48733465431371503 		Uiso   ? 		O 		-0.99476
O 1.0  		0.8018105018528987 		0.2553624144212047  0.7990146200396294 		Uiso   ? 		O 		-0.98307
O 1.0  		0.3001146284781106 		0.7521512467809811  0.8013352612506471 		Uiso   ? 		O 		-0.98307
O 1.0  		0.05103322655612085 		0.004710759374411156  0.8022278155625769 		Uiso   ? 		O 		-0.98307
O 1.0  		0.5497848753219019 		0.5024809999371899  0.7991931309020155 		Uiso   ? 		O 		-0.98307
O 1.0  		0.5509625651655047 		0.006084730858614409  0.7990146200396294 		Uiso   ? 		O 		-0.98307
O 1.0  		0.3022737265247158 		0.2532033163745996  0.8006212178011033 		Uiso   ? 		O 		-0.98307
O 1.0  		0.053977451165127796 		0.5052289429055964  0.7990146200396294 		Uiso   ? 		O 		-0.98307
O 1.0  		0.8012216569310973 		0.7515624018591798  0.8015137721130332 		Uiso   ? 		O 		-0.98307
O 1.0  		0.09990735506563657 		0.23023836442434523  0.3173923133222657 		Uiso   ? 		O 		-0.64248
O 1.0  		0.5972850323472144 		0.725456943659318  0.3132865634873882 		Uiso   ? 		O 		-0.64248
O 1.0  		0.35134413667483194 		0.9772862885497143  0.3172138024598797 		Uiso   ? 		O 		-0.64248
O 1.0  		0.8481329690346083 		0.47853463978393324  0.3111444331387565 		Uiso   ? 		O 		-0.64248
O 1.0  		0.8485255323158093 		0.9786602600339175  0.3122154983130724 		Uiso   ? 		O 		-0.64248
O 1.0  		0.6010143835186232 		0.22847182965894103  0.3179278459094236 		Uiso   ? 		O 		-0.64248
O 1.0  		0.3493813202688273 		0.47990861126813644  0.3181063567718096 		Uiso   ? 		O 		-0.64248
O 1.0  		0.09715941209723003 		0.7293825764713272  0.3141791177993181 		Uiso   ? 		O 		-0.64248
O 1.0  		0.1008887632686389 		0.23023836442434523  0.629429300772952 		Uiso   ? 		O 		-0.63945
O 1.0  		0.602192073362226 		0.7315416745179323  0.6296078116353381 		Uiso   ? 		O 		-0.63945
O 1.0  		0.34977388355002825 		0.9806230764399223  0.6265731269747764 		Uiso   ? 		O 		-0.63945
O 1.0  		0.8506846303624144 		0.48069373783053826  0.6231814205894429 		Uiso   ? 		O 		-0.63945
O 1.0  		0.8520586018466176 		0.9825858928459269  0.6265731269747764 		Uiso   ? 		O 		-0.63945
O 1.0  		0.6017995100810251 		0.22847182965894103  0.6280012138738642 		Uiso   ? 		O 		-0.63945
O 1.0  		0.35114785503423146 		0.47853463978393324  0.6258590835252326 		Uiso   ? 		O 		-0.63945
O 1.0  		0.10147760819044027 		0.7311491112367314  0.6258590835252326 		Uiso   ? 		O 		-0.63945
O 1.0  		0.9896520319075435 		0.16271748005778533  0.29811314018458024 		Uiso   ? 		O 		-0.62957
O 1.0  		0.4834416807989448 		0.6630393819483701  0.29632803156072046 		Uiso   ? 		O 		-0.62957
O 1.0  		0.23946360153256702 		0.9152612901199675  0.29597100983594854 		Uiso   ? 		O 		-0.62957
O 1.0  		0.7378226870171471 		0.4145468249481817  0.29757760759742236 		Uiso   ? 		O 		-0.62957
O 1.0  		0.7350747440487406 		0.9142798819169652  0.2986486727717382 		Uiso   ? 		O 		-0.62957
O 1.0  		0.48854500345455687 		0.16801708435399787  0.29954122708366804 		Uiso   ? 		O 		-0.62957
O 1.0  		0.23573425036115822 		0.41533195151058355  0.3013263357075278 		Uiso   ? 		O 		-0.62957
O 1.0  		0.9843524276113309 		0.6626468186671691  0.29561398811117656 		Uiso   ? 		O 		-0.62957
O 1.0  		0.9880817787827398 		0.16997990076000252  0.6081865081490209 		Uiso   ? 		O 		-0.63102
O 1.0  		0.48874128509515735 		0.6653947616355758  0.6096145950481088 		Uiso   ? 		O 		-0.63102
O 1.0  		0.23808963004836378 		0.9195794862131775  0.607115442974705 		Uiso   ? 		O 		-0.63102
O 1.0  		0.7397855034231519 		0.4178836128383896  0.6105071493600386 		Uiso   ? 		O 		-0.63102
O 1.0  		0.741552038188556 		0.9162426983229698  0.6092575733233367 		Uiso   ? 		O 		-0.63102
O 1.0  		0.4905078198605616 		0.16526914138559137  0.6092575733233367 		Uiso   ? 		O 		-0.63102
O 1.0  		0.23946360153256704 		0.4176873311977891  0.6083650190114068 		Uiso   ? 		O 		-0.63102
O 1.0  		0.986904088939137 		0.6646096350731738  0.6108641710848106 		Uiso   ? 		O 		-0.63102
O 1.0  		0.9156538534011683 		0.2602694554362163  0.3646976918545494 		Uiso   ? 		O 		-0.63344
O 1.0  		0.4165096413541862 		0.7627504553734062  0.3654117353040933 		Uiso   ? 		O 		-0.63344
O 1.0  		0.16860592927579926 		0.013935996482633  0.3643406701297774 		Uiso   ? 		O 		-0.63344
O 1.0  		0.6648059167137743 		0.510528547201809  0.36791088737749694 		Uiso   ? 		O 		-0.63344
O 1.0  		0.668927831166384 		0.011580616795427424  0.36594726789125115 		Uiso   ? 		O 		-0.63344
O 1.0  		0.41258400854217697 		0.26674674957603167  0.36719684392795304 		Uiso   ? 		O 		-0.63344
O 1.0  		0.1631100433389862 		0.5148467432950192  0.36451918099216335 		Uiso   ? 		O 		-0.63344
O 1.0  		0.9187943596507757 		0.7568620061553922  0.3663042896160232 		Uiso   ? 		O 		-0.63344
O 1.0  		0.9193832045725772 		0.2671393128572326  0.6767346793052358 		Uiso   ? 		O 		-0.63402
O 1.0  		0.41611707807298537 		0.7641244268576095  0.6758421249933059 		Uiso   ? 		O 		-0.63402
O 1.0  		0.16526914138559137 		0.016095094529238116  0.675306592406148 		Uiso   ? 		O 		-0.63402
O 1.0  		0.6703018026505874 		0.5138653350920168  0.6783412770667095 		Uiso   ? 		O 		-0.63402
O 1.0  		0.6679464229633817 		0.014132278123233465  0.675485103268534 		Uiso   ? 		O 		-0.63402
O 1.0  		0.4190613026819923 		0.25968061051441493  0.6779842553419376 		Uiso   ? 		O 		-0.63402
O 1.0  		0.16742823943219645 		0.5124913636078137  0.6733429729199022 		Uiso   ? 		O 		-0.63402
O 1.0  		0.9168315432447711 		0.7682463413102193  0.6712008425712704 		Uiso   ? 		O 		-0.63402
O 1.0  		0.021002135544249713 		0.34604453237861943  0.35005980113889934 		Uiso   ? 		O 		-0.64605
O 1.0  		0.5201463475912317 		0.8455813077068024  0.3509523554508292 		Uiso   ? 		O 		-0.64605
O 1.0  		0.2734203253564475 		0.0987296652220338  0.3455970295792499 		Uiso   ? 		O 		-0.64605
O 1.0  		0.7662835249042146 		0.5970887507066139  0.3477391599278816 		Uiso   ? 		O 		-0.64605
O 1.0  		0.7713868475598267 		0.09951479178443566  0.3488102251021975 		Uiso   ? 		O 		-0.64605
O 1.0  		0.5197537843100308 		0.3476147855034232  0.35041682286367126 		Uiso   ? 		O 		-0.64605
O 1.0  		0.26870956598203627 		0.5968924690660135  0.34720362734072374 		Uiso   ? 		O 		-0.64605
O 1.0  		0.019824445700646894 		0.8483292506752089  0.34720362734072374 		Uiso   ? 		O 		-0.64605
O 1.0  		0.02571289491866087 		0.34898875698762644  0.659776147378568 		Uiso   ? 		O 		-0.64896
O 1.0  		0.5195575026694303 		0.8487218139564098  0.659419125653796 		Uiso   ? 		O 		-0.64896
O 1.0  		0.27302776207524654 		0.09853338358143333  0.6592406147914102 		Uiso   ? 		O 		-0.64896
O 1.0  		0.7747236354500346 		0.6002292569562213  0.6574555061675503 		Uiso   ? 		O 		-0.64896
O 1.0  		0.7731533823252309 		0.10088876326863891  0.659776147378568 		Uiso   ? 		O 		-0.64896
O 1.0  		0.5223054456378369 		0.34643709565982034  0.659954658240954 		Uiso   ? 		O 		-0.64896
O 1.0  		0.2716537905910432 		0.596303624144212  0.6576340170299363 		Uiso   ? 		O 		-0.64896
O 1.0  		0.022572388669053402 		0.8500957854406131  0.6563844409932345 		Uiso   ? 		O 		-0.64896
O 1.0  		0.09441146912882356 		0.19000062810124993  0.3480961816526536 		Uiso   ? 		O 		-0.63614
O 1.0  		0.5902188932855977 		0.6856117706174235  0.34345489923061817 		Uiso   ? 		O 		-0.63614
O 1.0  		0.34133377300420825 		0.9386188053514227  0.34863171423981154 		Uiso   ? 		O 		-0.63614
O 1.0  		0.8438147729413983 		0.4367266503360342  0.34166979060675845 		Uiso   ? 		O 		-0.63614
O 1.0  		0.8434222096601971 		0.9368522705860185  0.34166979060675845 		Uiso   ? 		O 		-0.63614
O 1.0  		0.5925742729728033 		0.18430846052383645  0.34666809475356575 		Uiso   ? 		O 		-0.63614
O 1.0  		0.34054864644180644 		0.4400634382262421  0.34934575768935544 		Uiso   ? 		O 		-0.63614
O 1.0  		0.08930814647321145 		0.6901262483512343  0.3463110730287938 		Uiso   ? 		O 		-0.63614
O 1.0  		0.09264493436341938 		0.1917671628666541  0.6610257234152699 		Uiso   ? 		O 		-0.64014
O 1.0  		0.5939482444570064 		0.6897336850700333  0.6590621039290242 		Uiso   ? 		O 		-0.64014
O 1.0  		0.3440817159726147 		0.9378336787890208  0.6572769953051644 		Uiso   ? 		O 		-0.64014
O 1.0  		0.8463664342692043 		0.4416336913510458  0.6558489084060766 		Uiso   ? 		O 		-0.64014
O 1.0  		0.8455813077068023 		0.9417593116010301  0.6578125278923223 		Uiso   ? 		O 		-0.64014
O 1.0  		0.5927705546134037 		0.1884303749764462  0.660668701690498 		Uiso   ? 		O 		-0.64014
O 1.0  		0.34368915269141387 		0.4361378054142328  0.6563844409932345 		Uiso   ? 		O 		-0.64014
O 1.0  		0.09205608944161794 		0.6897336850700333  0.6567414627180064 		Uiso   ? 		O 		-0.64014
O 1.0  		0.9417593116010301 		0.1550624960743672  0.31685678073510776 		Uiso   ? 		O 		-0.63942
O 1.0  		0.43574524213303184 		0.6585249042145594  0.3173923133222657 		Uiso   ? 		O 		-0.63942
O 1.0  		0.1903931913824508 		0.9101579674643552  0.31382209607454614 		Uiso   ? 		O 		-0.63942
O 1.0  		0.6920890647572389 		0.40571415112116077  0.31757082418465166 		Uiso   ? 		O 		-0.63942
O 1.0  		0.6889485585076314 		0.9070174612147479  0.31899891108373946 		Uiso   ? 		O 		-0.63942
O 1.0  		0.440848564788644 		0.16016581872997926  0.3161427372855638 		Uiso   ? 		O 		-0.63942
O 1.0  		0.18901921989824758 		0.40983606557377056  0.3193559328085114 		Uiso   ? 		O 		-0.63942
O 1.0  		0.9366559889454181 		0.6557769612461529  0.3164997590103358 		Uiso   ? 		O 		-0.63942
O 1.0  		0.9413667483198292 		0.161736071854783  0.6269301486995484 		Uiso   ? 		O 		-0.64166
O 1.0  		0.44202625463224665 		0.6585249042145594  0.6271086595619344 		Uiso   ? 		O 		-0.64166
O 1.0  		0.19196344450725453 		0.9097654041831543  0.6251450400756886 		Uiso   ? 		O 		-0.64166
O 1.0  		0.6922853463978395 		0.4090509390113687  0.6283582355986362 		Uiso   ? 		O 		-0.64166
O 1.0  		0.6936593178820425 		0.9091765592613529  0.6290722790481801 		Uiso   ? 		O 		-0.64166
O 1.0  		0.4430076628352491 		0.15702531248037185  0.6280012138738642 		Uiso   ? 		O 		-0.64166
O 1.0  		0.19372997927265873 		0.40846209408956724  0.6280012138738642 		Uiso   ? 		O 		-0.64166
O 1.0  		0.9407779033980278 		0.6616654104641668  0.6267516378371625 		Uiso   ? 		O 		-0.64166
O 1.0  		0.05574398593053199 		0.1974593304440676  0.31239400917545834 		Uiso   ? 		O 		-0.94375
O 1.0  		0.5507662835249043 		0.6960146975692482  0.3093593245148968 		Uiso   ? 		O 		-0.94375
O 1.0  		0.3038439796495195 		0.9470589158972428  0.31239400917545834 		Uiso   ? 		O 		-0.94375
O 1.0  		0.8029881916965016 		0.4449704792412537  0.3082882593405809 		Uiso   ? 		O 		-0.94375
O 1.0  		0.8016142202122981 		0.9484328873814459  0.3093593245148968 		Uiso   ? 		O 		-0.94375
O 1.0  		0.5525328182903084 		0.19765561208466803  0.3134650743497742 		Uiso   ? 		O 		-0.94375
O 1.0  		0.30305885308711766 		0.4483072671314616  0.314893161248862 		Uiso   ? 		O 		-0.94375
O 1.0  		0.050051818353118484 		0.6987626405376547  0.3100733679644407 		Uiso   ? 		O 		-0.94375
O 1.0  		0.05437001444632874 		0.20315149802148105  0.6242524857637587 		Uiso   ? 		O 		-0.93984
O 1.0  		0.5566547327429182 		0.6991552038188557  0.6231814205894429 		Uiso   ? 		O 		-0.93984
O 1.0  		0.30580679605552413 		0.9480403241002451  0.622467377139899 		Uiso   ? 		O 		-0.93984
O 1.0  		0.8055398530243076 		0.4494849569750644  0.6219318445527411 		Uiso   ? 		O 		-0.93984
O 1.0  		0.805736134664908 		0.9498068588656493  0.6217533336903551 		Uiso   ? 		O 		-0.93984
O 1.0  		0.5566547327429182 		0.19667420388166573  0.6238954640389869 		Uiso   ? 		O 		-0.93984
O 1.0  		0.30345141636831857 		0.4473258589284593  0.622110355415127 		Uiso   ? 		O 		-0.93984
O 1.0  		0.05338860624332639 		0.7005291753030589  0.622288866277513 		Uiso   ? 		O 		-0.93984
O 1.0  		0.9590320959738711 		0.20197380817787827  0.30186186829468575 		Uiso   ? 		O 		-0.98540
O 1.0  		0.45537340619307826 		0.702688273349664  0.30150484656991383 		Uiso   ? 		O 		-0.98540
O 1.0  		0.20727341247409078 		0.9553027448024622  0.30043378139559795 		Uiso   ? 		O 		-0.98540
O 1.0  		0.7066139061616733 		0.45301802650587275  0.30364697691854553 		Uiso   ? 		O 		-0.98540
O 1.0  		0.7070064694428742 		0.953928773318259  0.3048965529552473 		Uiso   ? 		O 		-0.98540
O 1.0  		0.45851391244268574 		0.20845110231769365  0.3061461289919492 		Uiso   ? 		O 		-0.98540
O 1.0  		0.20903994723949498 		0.4563548143960807  0.3048965529552473 		Uiso   ? 		O 		-0.98540
O 1.0  		0.9570692795678665 		0.703080836630865  0.30025527053321194 		Uiso   ? 		O 		-0.98540
O 1.0  		0.9606023490986748 		0.2092362288800955  0.6142558774701441 		Uiso   ? 		O 		-0.98561
O 1.0  		0.45910275736448714 		0.7068101878022738  0.6137203448829862 		Uiso   ? 		O 		-0.98561
O 1.0  		0.20746969411469124 		0.9592283776144714  0.6133633231582142 		Uiso   ? 		O 		-0.98561
O 1.0  		0.7117172288172854 		0.4567473776772816  0.6155054535068459 		Uiso   ? 		O 		-0.98561
O 1.0  		0.709950694051881 		0.9556953080836631  0.6130063014334423 		Uiso   ? 		O 		-0.98561
O 1.0  		0.4600841655674895 		0.20334777966208153  0.615148431782074 		Uiso   ? 		O 		-0.98561
O 1.0  		0.21100276364549964 		0.45753250423968345  0.6140773666077581 		Uiso   ? 		O 		-0.98561
O 1.0  		0.9609949123798757 		0.7077915960052761  0.6126492797086703 		Uiso   ? 		O 		-0.98561
O 1.0  		0.05005181835311851 		0.24947396520319076  0.33399382352416146 		Uiso   ? 		O 		-0.99270
O 1.0  		0.5472332139940959 		0.747833050687771  0.3316731823131438 		Uiso   ? 		O 		-0.99270
O 1.0  		0.3008997550405125 		0.9994661139375667  0.3316731823131438 		Uiso   ? 		O 		-0.99270
O 1.0  		0.797688587400289 		0.49718139564097735  0.329888073689284 		Uiso   ? 		O 		-0.99270
O 1.0  		0.7996514038062935 		0.9990735506563658  0.3331012692122316 		Uiso   ? 		O 		-0.99270
O 1.0  		0.5489997487595001 		0.24613717731298287  0.3352433995608633 		Uiso   ? 		O 		-0.99270
O 1.0  		0.29658155894730226 		0.4995367753281829  0.3334582909370036 		Uiso   ? 		O 		-0.99270
O 1.0  		0.047500157025312434 		0.750777275296778  0.3291740302397401 		Uiso   ? 		O 		-0.99270
O 1.0  		0.05044438163431944 		0.2526144714527982  0.6433531480390582 		Uiso   ? 		O 		-0.99344
O 1.0  		0.5499811569625024 		0.7501884303749765  0.645316767525304 		Uiso   ? 		O 		-0.99344
O 1.0  		0.2991332202751083 		0.9990735506563658  0.6426391045895143 		Uiso   ? 		O 		-0.99344
O 1.0  		0.8029881916965016 		0.5022847182965895  0.6419250611399704 		Uiso   ? 		O 		-0.99344
O 1.0  		0.8025956284153006 		0.003336787890207902  0.6406754851032685 		Uiso   ? 		O 		-0.99344
O 1.0  		0.5505700018843038 		0.24888512028138937  0.6435316589014441 		Uiso   ? 		O 		-0.99344
O 1.0  		0.3001146284781106 		0.4975739589221783  0.6426391045895143 		Uiso   ? 		O 		-0.99344
O 1.0  		0.050640663274919874 		0.7513661202185793  0.6406754851032685 		Uiso   ? 		O 		-0.99344
O 1.0  		0.15486621443376672 		0.2716537905910433  0.16815723236758956 		Uiso   ? 		O 		-0.92044
O 1.0  		0.6565620878085549 		0.7707980026380253  0.1667291454685018 		Uiso   ? 		O 		-0.92044
O 1.0  		0.407088122605364 		0.02414264179385717  0.165122547707028 		Uiso   ? 		O 		-0.92044
O 1.0  		0.9036806733245399 		0.5219128823566359  0.16601510201895786 		Uiso   ? 		O 		-0.92044
O 1.0  		0.9081951510583506 		0.022179825387852525  0.16637212374372984 		Uiso   ? 		O 		-0.92044
O 1.0  		0.657936059292758 		0.2716537905910433  0.17101340616576519 		Uiso   ? 		O 		-0.92044
O 1.0  		0.40473274291815836 		0.5183798128258276  0.16976383012906335 		Uiso   ? 		O 		-0.92044
O 1.0  		0.15525877771496763 		0.771975692481628  0.1667291454685018 		Uiso   ? 		O 		-0.92044
O 1.0  		0.1521182714653602 		0.27145750895044285  0.47376782877238083 		Uiso   ? 		O 		-0.63615
O 1.0  		0.6494959487469381 		0.7711905659192262  0.4719827201485211 		Uiso   ? 		O 		-0.63615
O 1.0  		0.4033587714339552 		0.019431882419446017  0.4712686766989772 		Uiso   ? 		O 		-0.63615
O 1.0  		0.9032881100433391 		0.5183798128258276  0.4657348399650119 		Uiso   ? 		O 		-0.63615
O 1.0  		0.9054472080899443 		0.017861629294642297  0.46912654635034545 		Uiso   ? 		O 		-0.63615
O 1.0  		0.6526364549965455 		0.2708686640286414  0.4712686766989772 		Uiso   ? 		O 		-0.63615
O 1.0  		0.40159223666855093 		0.5187723761070284  0.47144718756136317 		Uiso   ? 		O 		-0.63615
O 1.0  		0.150351736699956 		0.7674612147478175  0.4712686766989772 		Uiso   ? 		O 		-0.63615
O 1.0  		0.15722159412097228 		0.27400917027824884  0.7818775772505757 		Uiso   ? 		O 		-0.64709
O 1.0  		0.6512624835123423 		0.7747236354500346  0.7850907727735232 		Uiso   ? 		O 		-0.64709
O 1.0  		0.4041438979963571 		0.028068274605866465  0.7813420446634177 		Uiso   ? 		O 		-0.64709
O 1.0  		0.9064286162929466 		0.5225017272784374  0.7816990663881896 		Uiso   ? 		O 		-0.64709
O 1.0  		0.9001476037937317 		0.024731486715658564  0.7872329031221551 		Uiso   ? 		O 		-0.64709
O 1.0  		0.6544029897619497 		0.2751868601218516  0.7836626858744354 		Uiso   ? 		O 		-0.64709
O 1.0  		0.40434017963695745 		0.5213240374348346  0.7804494903514879 		Uiso   ? 		O 		-0.64709
O 1.0  		0.1530996796683625 		0.7733496639658314  0.7816990663881896 		Uiso   ? 		O 		-0.64709
O 1.0  		0.01923560077884555 		0.08243828905219522  0.14209464645923706 		Uiso   ? 		O 		-0.82685
O 1.0  		0.5146504616544187 		0.5798159663337731  0.142451668184009 		Uiso   ? 		O 		-0.82685
O 1.0  		0.2706723823880409 		0.8359635073173797  0.14495082025741268 		Uiso   ? 		O 		-0.82685
O 1.0  		0.7686389045914201 		0.33387507066139066  0.13977400524821937 		Uiso   ? 		O 		-0.82685
O 1.0  		0.7696203127944224 		0.8347858174737769  0.14120209214730717 		Uiso   ? 		O 		-0.82685
O 1.0  		0.518576094466428 		0.08381226053639847  0.1447723093950267 		Uiso   ? 		O 		-0.82685
O 1.0  		0.26733559449783306 		0.3370155769109981  0.14566486370695655 		Uiso   ? 		O 		-0.82685
O 1.0  		0.015309967966836218 		0.58276019094278  0.14048804869776327 		Uiso   ? 		O 		-0.82685
O 1.0  		0.020805853903649262 		0.08656020350480498  0.45413163390992345 		Uiso   ? 		O 		-0.63031
O 1.0  		0.5162207147792224 		0.5866858237547893  0.45627376425855515 		Uiso   ? 		O 		-0.63031
O 1.0  		0.26498021481062745 		0.836944915520382  0.4532390795979936 		Uiso   ? 		O 		-0.63031
O 1.0  		0.7670686514666164 		0.33603416870799574  0.4560952533961692 		Uiso   ? 		O 		-0.63031
O 1.0  		0.763928145217009 		0.8347858174737769  0.4553812099466253 		Uiso   ? 		O 		-0.63031
O 1.0  		0.5166132780604233 		0.08577507694240312  0.45127546011174785 		Uiso   ? 		O 		-0.63031
O 1.0  		0.2649802148106275 		0.33387507066139066  0.4553812099466253 		Uiso   ? 		O 		-0.63031
O 1.0  		0.015506249607436684 		0.5880597952389925  0.4569878077080991 		Uiso   ? 		O 		-0.63031
O 1.0  		0.012365743357829277 		0.08106431756799196  0.7586711651403988 		Uiso   ? 		O 		-0.64042
O 1.0  		0.5146504616544187 		0.5868821053953898  0.7620628715257324 		Uiso   ? 		O 		-0.64042
O 1.0  		0.2624285534828214 		0.8332155643489731  0.7602777629018727 		Uiso   ? 		O 		-0.64042
O 1.0  		0.763928145217009 		0.3383895483952013  0.7624198932505043 		Uiso   ? 		O 		-0.64042
O 1.0  		0.7615727655298035 		0.8353746623955782  0.7643835127367501 		Uiso   ? 		O 		-0.64042
O 1.0  		0.5136690534514164 		0.08695276678600591  0.7620628715257324 		Uiso   ? 		O 		-0.64042
O 1.0  		0.26262483512342194 		0.33485647886439296  0.7584926542780128 		Uiso   ? 		O 		-0.64042
O 1.0  		0.009028955467621344 		0.5813862194585768  0.7606347846266446 		Uiso   ? 		O 		-0.64042
O 1.0  		0.8375337604421834 		0.23671565856416055  0.2115353719273818 		Uiso   ? 		O 		-0.62971
O 1.0  		0.3356416054267948 		0.736056152251743  0.2106428176154519 		Uiso   ? 		O 		-0.62971
O 1.0  		0.08577507694240306 		0.9896520319075435  0.21046430675306593 		Uiso   ? 		O 		-0.62971
O 1.0  		0.5866858237547893 		0.48560077884555  0.2129634588264696 		Uiso   ? 		O 		-0.62971
O 1.0  		0.587470950317191 		0.9853338358143332  0.21099983934022384 		Uiso   ? 		O 		-0.62971
O 1.0  		0.33151969097418504 		0.24221154450097357  0.21564112176225925 		Uiso   ? 		O 		-0.62971
O 1.0  		0.08440110545819984 		0.48756359525155457  0.21439154572555744 		Uiso   ? 		O 		-0.62971
O 1.0  		0.8367486338797815 		0.7378226870171471  0.21099983934022384 		Uiso   ? 		O 		-0.62971
O 1.0  		0.8381226053639846 		0.2353416870799573  0.5225012942037524 		Uiso   ? 		O 		-0.63209
O 1.0  		0.33348250738018964 		0.7405706299855538  0.5221442724789803 		Uiso   ? 		O 		-0.63209
O 1.0  		0.08675648514540539 		0.9863152440173357  0.5194666095431908 		Uiso   ? 		O 		-0.63209
O 1.0  		0.5825639093021795 		0.4887412850951574  0.5244649136899981 		Uiso   ? 		O 		-0.63209
O 1.0  		0.5864895421141887 		0.9892594686263426  0.5207161855798925 		Uiso   ? 		O 		-0.63209
O 1.0  		0.33524904214559387 		0.23514540543935683  0.5221442724789803 		Uiso   ? 		O 		-0.63209
O 1.0  		0.08106431756799193 		0.48854500345455687  0.5207161855798925 		Uiso   ? 		O 		-0.63209
O 1.0  		0.8367486338797815 		0.7356635889705422  0.518217033506489 		Uiso   ? 		O 		-0.63209
O 1.0  		0.8389077319263866 		0.23750078512656242  0.8302540209571753 		Uiso   ? 		O 		-0.82856
O 1.0  		0.33799698511400034 		0.7337007725645375  0.832396151305807 		Uiso   ? 		O 		-0.82856
O 1.0  		0.08871930155141004 		0.9863152440173357  0.832931683892965 		Uiso   ? 		O 		-0.82856
O 1.0  		0.5868821053953898 		0.4865821870485523  0.8316821078562631 		Uiso   ? 		O 		-0.82856
O 1.0  		0.5864895421141887 		0.9867078072985366  0.8315035969938772 		Uiso   ? 		O 		-0.82856
O 1.0  		0.3362304503485962 		0.23514540543935683  0.8343597707920528 		Uiso   ? 		O 		-0.82856
O 1.0  		0.08773789334840774 		0.48756359525155457  0.8322176404434211 		Uiso   ? 		O 		-0.82856
O 1.0  		0.8424408014571949 		0.7311491112367314  0.8263267819846838 		Uiso   ? 		O 		-0.82856
O 1.0  		0.9806230764399223 		0.40198479994975195  0.19636194862457385 		Uiso   ? 		O 		-0.66931
O 1.0  		0.48128258275233965 		0.9030918284027386  0.19850407897320554 		Uiso   ? 		O 		-0.66931
O 1.0  		0.23220118083034988 		0.150744299981157  0.19279173137685432 		Uiso   ? 		O 		-0.66931
O 1.0  		0.7303639846743296 		0.6514587651529427  0.1974330137988897 		Uiso   ? 		O 		-0.66931
O 1.0  		0.7338970542051378 		0.1511368632623579  0.1926132205144683 		Uiso   ? 		O 		-0.66931
O 1.0  		0.482263990955342 		0.39904057534074494  0.1906496010282226 		Uiso   ? 		O 		-0.66931
O 1.0  		0.23377143395515357 		0.6500847936687394  0.18850747067959087 		Uiso   ? 		O 		-0.66931
O 1.0  		0.9853338358143332 		0.9013252936373343  0.19082811189060855 		Uiso   ? 		O 		-0.66931
O 1.0  		0.9796416682369198 		0.4033587714339552  0.5044716971027687 		Uiso   ? 		O 		-0.64553
O 1.0  		0.48285283587714334 		0.9019141385591357  0.5046502079651547 		Uiso   ? 		O 		-0.64553
O 1.0  		0.2320048991897494 		0.1529033980277621  0.5019725450293651 		Uiso   ? 		O 		-0.64553
O 1.0  		0.7295788581119277 		0.652440173355945  0.5037576536532249 		Uiso   ? 		O 		-0.64553
O 1.0  		0.7303639846743296 		0.1523145531059607  0.5055427622770846 		Uiso   ? 		O 		-0.64553
O 1.0  		0.47814207650273227 		0.4033587714339552  0.5060782948642425 		Uiso   ? 		O 		-0.64553
O 1.0  		0.23396771559575402 		0.6516550467935431  0.5025080776165229 		Uiso   ? 		O 		-0.64553
O 1.0  		0.9825858928459269 		0.9001476037937317  0.502329566754137 		Uiso   ? 		O 		-0.64553
O 1.0  		0.9798379498775203 		0.4023773632309528  0.8059765436726825 		Uiso   ? 		O 		-0.82178
O 1.0  		0.47794579486213173 		0.9072137428553483  0.8077616522965424 		Uiso   ? 		O 		-0.82178
O 1.0  		0.2296495195025438 		0.15152942654355883  0.8066905871222264 		Uiso   ? 		O 		-0.82178
O 1.0  		0.7278123233465236 		0.6567583694491552  0.8041914350488227 		Uiso   ? 		O 		-0.82178
O 1.0  		0.7297751397525282 		0.15624018591796998  0.8065120762598404 		Uiso   ? 		O 		-0.82178
O 1.0  		0.4775532315809308 		0.40100339174674965  0.8061550545350685 		Uiso   ? 		O 		-0.82178
O 1.0  		0.22572388669053448 		0.6547955530431505  0.8036559024616649 		Uiso   ? 		O 		-0.82178
O 1.0  		0.9772862885497143 		0.9026992651215376  0.8066905871222264 		Uiso   ? 		O 		-0.82178
O 1.0  		0.16016581872997923 		0.30875102066453114  0.1995751441475214 		Uiso   ? 		O 		-0.65466
O 1.0  		0.663824508510772 		0.8088766409145156  0.1981470572484336 		Uiso   ? 		O 		-0.65466
O 1.0  		0.412976571823378 		0.0602584636643427  0.1967189703493458 		Uiso   ? 		O 		-0.65466
O 1.0  		0.9097654041831543 		0.560384083914327  0.19475535086310003 		Uiso   ? 		O 		-0.65466
O 1.0  		0.9138873186357641 		0.058688210539538974  0.19600492689980187 		Uiso   ? 		O 		-0.65466
O 1.0  		0.6653947616355758 		0.30914358394573205  0.19975365500990735 		Uiso   ? 		O 		-0.65466
O 1.0  		0.41003234721437093 		0.5572435776647195  0.1974330137988897 		Uiso   ? 		O 		-0.65466
O 1.0  		0.16448401482318944 		0.8073063877897119  0.19761152466127566 		Uiso   ? 		O 		-0.65466
O 1.0  		0.1603621003705797 		0.31424690660134413  0.5034006319284529 		Uiso   ? 		O 		-0.63842
O 1.0  		0.6577397776521575 		0.8129985553671253  0.5009014798550492 		Uiso   ? 		O 		-0.63842
O 1.0  		0.41140631869857425 		0.0630064066327492  0.5003659472678913 		Uiso   ? 		O 		-0.63842
O 1.0  		0.9078025877771497 		0.5588138307895233  0.49608168657062784 		Uiso   ? 		O 		-0.63842
O 1.0  		0.9125133471515608 		0.06006218202374223  0.4978667951944876 		Uiso   ? 		O 		-0.63842
O 1.0  		0.6589174674957604 		0.31267665347654044  0.5016155233045931 		Uiso   ? 		O 		-0.63842
O 1.0  		0.40865837573016767 		0.5619543370391308  0.5007229689926632 		Uiso   ? 		O 		-0.63842
O 1.0  		0.15859556560517551 		0.8114283022423215  0.5010799907174351 		Uiso   ? 		O 		-0.63842
O 1.0  		0.16507285974499086 		0.3140506249607437  0.8120459129938058 		Uiso   ? 		O 		-0.65524
O 1.0  		0.657936059292758 		0.8161390616167328  0.8138310216176655 		Uiso   ? 		O 		-0.65524
O 1.0  		0.4127802901827775 		0.06575434960115571  0.8118674021314197 		Uiso   ? 		O 		-0.65524
O 1.0  		0.9123170655109604 		0.5621506186797312  0.8109748478194899 		Uiso   ? 		O 		-0.65524
O 1.0  		0.9123170655109604 		0.06536178631995479  0.8156161302415252 		Uiso   ? 		O 		-0.65524
O 1.0  		0.6618616921047673 		0.3140506249607437  0.8150805976543672 		Uiso   ? 		O 		-0.65524
O 1.0  		0.4108174737767728 		0.5615617737579298  0.8111533586818758 		Uiso   ? 		O 		-0.65524
O 1.0  		0.16075466365178062 		0.8147650901325294  0.8116888912690338 		Uiso   ? 		O 		-0.65524
O 1.0  		0.064184096476352 		0.08675648514540545  0.16083828700976455 		Uiso   ? 		O 		-0.62337
O 1.0  		0.5615617737579298 		0.5898263300043968  0.16262339563362432 		Uiso   ? 		O 		-0.62337
O 1.0  		0.3160134413667483 		0.8414593932541926  0.16547956943179995 		Uiso   ? 		O 		-0.62337
O 1.0  		0.8175130331009359 		0.3370155769109981  0.15851764579874686 		Uiso   ? 		O 		-0.62337
O 1.0  		0.8161390616167328 		0.8416556748947931  0.16119530873453652 		Uiso   ? 		O 		-0.62337
O 1.0  		0.5647022800075372 		0.08970070975441242  0.1642299933950981 		Uiso   ? 		O 		-0.62337
O 1.0  		0.31326549839834184 		0.3413337730042083  0.16369446080794017 		Uiso   ? 		O 		-0.62337
O 1.0  		0.06300640663274916 		0.5900226116449971  0.1604812652849926 		Uiso   ? 		O 		-0.62337
O 1.0  		0.06752088436655988 		0.09009327303561335  0.47376782877238083 		Uiso   ? 		O 		-0.63487
O 1.0  		0.5623469003203317 		0.5923779913322027  0.47573144825862657 		Uiso   ? 		O 		-0.63487
O 1.0  		0.31012499214873435 		0.8426370830977954  0.47216123101090707 		Uiso   ? 		O 		-0.63487
O 1.0  		0.8124097104453238 		0.3409412097230074  0.4755529373962406 		Uiso   ? 		O 		-0.63487
O 1.0  		0.8112320206017211 		0.8398891401293889  0.47376782877238083 		Uiso   ? 		O 		-0.63487
O 1.0  		0.5629357452421331 		0.0948040324100245  0.47109016583659113 		Uiso   ? 		O 		-0.63487
O 1.0  		0.3128729351171409 		0.34035236480120595  0.47287527446045097 		Uiso   ? 		O 		-0.63487
O 1.0  		0.06202499842974685 		0.5923779913322027  0.47573144825862657 		Uiso   ? 		O 		-0.63487
O 1.0  		0.06281012499214873 		0.09343006092582125  0.7713454363698031 		Uiso   ? 		O 		-0.64381
O 1.0  		0.5621506186797312 		0.5937519628164061  0.7797354469019441 		Uiso   ? 		O 		-0.64381
O 1.0  		0.3116952452735381 		0.8418519565353935  0.7759867187918386 		Uiso   ? 		O 		-0.64381
O 1.0  		0.8126059920859242 		0.3446705608944162  0.7759867187918386 		Uiso   ? 		O 		-0.64381
O 1.0  		0.8096617674769173 		0.8436184913007978  0.779378425177172 		Uiso   ? 		O 		-0.64381
O 1.0  		0.5631320268827336 		0.09264493436341939  0.7740230993055929 		Uiso   ? 		O 		-0.64381
O 1.0  		0.31424690660134413 		0.3423151812072106  0.7736660775808207 		Uiso   ? 		O 		-0.64381
O 1.0  		0.06065102694554359 		0.5943408077382074  0.7717024580945752 		Uiso   ? 		O 		-0.64381
O 1.0  		0.950984548709252 		0.05417373280572829  0.16315892822078226 		Uiso   ? 		O 		-0.95878
O 1.0  		0.4477184222096602 		0.5513551284467056  0.16440850425748407 		Uiso   ? 		O 		-0.95878
O 1.0  		0.1994221468500722 		0.8014179385716979  0.16065977614737859 		Uiso   ? 		O 		-0.95878
O 1.0  		0.6985663588970543 		0.3024700081653163  0.16119530873453652 		Uiso   ? 		O 		-0.95878
O 1.0  		0.6991552038188557 		0.8047547264619056  0.1597672218354487 		Uiso   ? 		O 		-0.95878
O 1.0  		0.45105521009986815 		0.05672539413353433  0.16065977614737859 		Uiso   ? 		O 		-0.95878
O 1.0  		0.1988333019282708 		0.3050216694931223  0.16440850425748407 		Uiso   ? 		O 		-0.95878
O 1.0  		0.9462737893348407 		0.555280761258715  0.1590531783859048 		Uiso   ? 		O 		-0.95878
O 1.0  		0.9533399283964576 		0.05064066327491992  0.4639497313411522 		Uiso   ? 		O 		-0.93613
O 1.0  		0.44948495697506435 		0.5515514100873061  0.46627037255216985 		Uiso   ? 		O 		-0.93613
O 1.0  		0.19628164060046474 		0.8016142202122982  0.46555632910262595 		Uiso   ? 		O 		-0.93613
O 1.0  		0.6987626405376547 		0.30345141636831857  0.4685910137631875 		Uiso   ? 		O 		-0.93613
O 1.0  		0.6962109792098486 		0.8018105018528987  0.46698441600171375 		Uiso   ? 		O 		-0.93613
O 1.0  		0.4494849569750644 		0.052799761321525036  0.46627037255216985 		Uiso   ? 		O 		-0.93613
O 1.0  		0.200599836693675 		0.301096036681113  0.4682339920384156 		Uiso   ? 		O 		-0.93613
O 1.0  		0.9496105772250487 		0.5507662835249043  0.46448526392831 		Uiso   ? 		O 		-0.93613
O 1.0  		0.9500031405062497 		0.050836944915520384  0.7790214034524001 		Uiso   ? 		O 		-0.94051
O 1.0  		0.4516440550216695 		0.5509625651655047  0.7774148056909265 		Uiso   ? 		O 		-0.94051
O 1.0  		0.20236637145907915 		0.802791910055901  0.7777718274156983 		Uiso   ? 		O 		-0.94051
O 1.0  		0.699744048740657 		0.3054142327743232  0.780628001213874 		Uiso   ? 		O 		-0.94051
O 1.0  		0.6993514854594561 		0.8047547264619056  0.7809850229386459 		Uiso   ? 		O 		-0.94051
O 1.0  		0.45184033666226997 		0.055547704289931533  0.7784858708652421 		Uiso   ? 		O 		-0.94051
O 1.0  		0.2033477796620815 		0.30345141636831857  0.7788428925900143 		Uiso   ? 		O 		-0.94051
O 1.0  		0.953143646755857 		0.5523365366497079  0.7790214034524001 		Uiso   ? 		O 		-0.94051
O 1.0  		0.2033477796620815 		0.24986652848439167  0.1761902211749585 		Uiso   ? 		O 		-1.01508
O 1.0  		0.7038659631932668 		0.7494033038125747  0.172441493064853 		Uiso   ? 		O 		-1.01508
O 1.0  		0.4541957163494756 		0.0007851265624018593  0.17583319945018655 		Uiso   ? 		O 		-1.01508
O 1.0  		0.9515733936310533 		0.5011070284529866  0.17226298220246702 		Uiso   ? 		O 		-1.01508
O 1.0  		0.9558915897242635 		0.9992698322969664  0.17262000392723897 		Uiso   ? 		O 		-1.01508
O 1.0  		0.7068101878022738 		0.24908140192198983  0.17672575376211644 		Uiso   ? 		O 		-1.01508
O 1.0  		0.45282174486527227 		0.4983590854845802  0.1769042646245024 		Uiso   ? 		O 		-1.01508
O 1.0  		0.20256265309967963 		0.7480293323283713  0.17208447134008104 		Uiso   ? 		O 		-1.01508
O 1.0  		0.20354406130268196 		0.2532033163745996  0.49001231724950467 		Uiso   ? 		O 		-0.99654
O 1.0  		0.702295710068463 		0.7521512467809811  0.487691676038487 		Uiso   ? 		O 		-0.99654
O 1.0  		0.454784561271277 		0.000981408203002324  0.48804869776325893 		Uiso   ? 		O 		-0.99654
O 1.0  		0.9525548018340556 		0.4989479304063815  0.4842999696531534 		Uiso   ? 		O 		-0.99654
O 1.0  		0.9539287733182589 		0.9975032975315621  0.4844784805155394 		Uiso   ? 		O 		-0.99654
O 1.0  		0.7034733999120659 		0.25104421832799445  0.48947678466234673 		Uiso   ? 		O 		-0.99654
O 1.0  		0.45321430814647323 		0.5013033100935871  0.48572805655224127 		Uiso   ? 		O 		-0.99654
O 1.0  		0.20256265309967963 		0.750777275296778  0.48644210000178517 		Uiso   ? 		O 		-0.99654
O 1.0  		0.20432918786508383 		0.25025909176559263  0.8004427069387172 		Uiso   ? 		O 		-0.98374
O 1.0  		0.6999403303812575 		0.7531326549839835  0.8009782395258752 		Uiso   ? 		O 		-0.98374
O 1.0  		0.4524291815840714 		0.0017665347654041831  0.7975865331405416 		Uiso   ? 		O 		-0.98374
O 1.0  		0.9554990264430627 		0.5009107468123862  0.7990146200396294 		Uiso   ? 		O 		-0.98374
O 1.0  		0.950591985428051 		0.0015702531248037185  0.8027633481497349 		Uiso   ? 		O 		-0.98374
O 1.0  		0.7034733999120659 		0.2528107530933987  0.7999071743515593 		Uiso   ? 		O 		-0.98374
O 1.0  		0.4530180265058727 		0.499144212046982  0.7991931309020155 		Uiso   ? 		O 		-0.98374
O 1.0  		0.2021700898184787 		0.7527400917027826  0.8000856852139454 		Uiso   ? 		O 		-0.98374
O 1.0  		0.9038769549651405 		0.26655046793543125  0.31525018297363394 		Uiso   ? 		O 		-0.64140
O 1.0  		0.4035550530745556 		0.7717794108410276  0.3154286938360199 		Uiso   ? 		O 		-0.64140
O 1.0  		0.15211827146536022 		0.02080585390364927  0.3166782698727218 		Uiso   ? 		O 		-0.64140
O 1.0  		0.6481219772627348 		0.5158281514980215  0.31899891108373946 		Uiso   ? 		O 		-0.64140
O 1.0  		0.6563658061679543 		0.020217008981847875  0.31453613952409004 		Uiso   ? 		O 		-0.64140
O 1.0  		0.4002182651843478 		0.2692984109038377  0.3191774219461255 		Uiso   ? 		O 		-0.64140
O 1.0  		0.14838892029395137 		0.5170058413416243  0.3166782698727218 		Uiso   ? 		O 		-0.64140
O 1.0  		0.902895546762138 		0.7688351862320206  0.3179278459094236 		Uiso   ? 		O 		-0.64140
O 1.0  		0.9042695182463414 		0.27361660699704793  0.6287152573234082 		Uiso   ? 		O 		-0.63556
O 1.0  		0.4031624897933546 		0.7688351862320206  0.6260375943876185 		Uiso   ? 		O 		-0.63556
O 1.0  		0.14956661013755418 		0.021002135544249734  0.6276441921490923 		Uiso   ? 		O 		-0.63556
O 1.0  		0.6567583694491552 		0.5203426292318322  0.6271086595619344 		Uiso   ? 		O 		-0.63556
O 1.0  		0.6536178631995478 		0.018843037497644623  0.6278227030114782 		Uiso   ? 		O 		-0.63556
O 1.0  		0.4047327429181584 		0.26733559449783306  0.6283582355986362 		Uiso   ? 		O 		-0.63556
O 1.0  		0.15113686326235787 		0.5168095597010238  0.6246095074885307 		Uiso   ? 		O 		-0.63556
O 1.0  		0.9054472080899443 		0.772368255762829  0.6235384423142148 		Uiso   ? 		O 		-0.63556
O 1.0  		0.01472112304503484 		0.3325010991771874  0.30025527053321194 		Uiso   ? 		O 		-0.63340
O 1.0  		0.5126876452484141 		0.8334118459895736  0.30186186829468575 		Uiso   ? 		O 		-0.63340
O 1.0  		0.2655690597324289 		0.08243828905219522  0.2965065424231065 		Uiso   ? 		O 		-0.63340
O 1.0  		0.761376483889203 		0.5841341624269832  0.2993627162212821 		Uiso   ? 		O 		-0.63340
O 1.0  		0.7662835249042146 		0.08597135858300359  0.300076759670826 		Uiso   ? 		O 		-0.63340
O 1.0  		0.516024433138622 		0.3334825073801897  0.30096931398275584 		Uiso   ? 		O 		-0.63340
O 1.0  		0.2639988066076251 		0.5849192889893852  0.29811314018458024 		Uiso   ? 		O 		-0.63340
O 1.0  		0.014132278123233413 		0.8365523522391809  0.29811314018458024 		Uiso   ? 		O 		-0.63340
O 1.0  		0.018843037497644603 		0.3379969851140004  0.6113997036719685 		Uiso   ? 		O 		-0.63083
O 1.0  		0.5142578983732178 		0.8322341561459708  0.6103286384976526 		Uiso   ? 		O 		-0.63083
O 1.0  		0.26733559449783306 		0.08656020350480498  0.6105071493600386 		Uiso   ? 		O 		-0.63083
O 1.0  		0.7672649331072169 		0.5841341624269832  0.6092575733233367 		Uiso   ? 		O 		-0.63083
O 1.0  		0.7666760881854155 		0.0887193015514101  0.6101501276352667 		Uiso   ? 		O 		-0.63083
O 1.0  		0.5168095597010238 		0.3330899440989888  0.6108641710848106 		Uiso   ? 		O 		-0.63083
O 1.0  		0.2691021292632372 		0.5835453175051818  0.6083650190114068 		Uiso   ? 		O 		-0.63083
O 1.0  		0.0158988128886376 		0.8345895358331763  0.607472464699477 		Uiso   ? 		O 		-0.63083
O 1.0  		0.08459738709880031 		0.23710822184536148  0.36648280047840914 		Uiso   ? 		O 		-0.63335
O 1.0  		0.586096978832988 		0.73056026631493  0.36237705064353165 		Uiso   ? 		O 		-0.63335
O 1.0  		0.3356416054267948 		0.9851375541737329  0.36576875702886524 		Uiso   ? 		O 		-0.63335
O 1.0  		0.8367486338797815 		0.482263990955342  0.36130598546921583 		Uiso   ? 		O 		-0.63335
O 1.0  		0.8365523522391808 		0.98395986433013  0.36184151805637377 		Uiso   ? 		O 		-0.63335
O 1.0  		0.5859006971923875 		0.2347528421581559  0.367375354790339 		Uiso   ? 		O 		-0.63335
O 1.0  		0.3336787890207901 		0.48736731361095414  0.367375354790339 		Uiso   ? 		O 		-0.63335
O 1.0  		0.08047547264619052 		0.7380189686577476  0.36398364840500547 		Uiso   ? 		O 		-0.63335
O 1.0  		0.08440110545819986 		0.2414264179385717  0.6776272336171656 		Uiso   ? 		O 		-0.63399
O 1.0  		0.5870783870359902 		0.7354673073299416  0.6774487227547796 		Uiso   ? 		O 		-0.63399
O 1.0  		0.33838954839520125 		0.984744990892532  0.6756636141309199 		Uiso   ? 		O 		-0.63399
O 1.0  		0.8410668299729918 		0.48834872181395644  0.6735214837822883 		Uiso   ? 		O 		-0.63399
O 1.0  		0.8373374788015827 		0.9882780604233403  0.6756636141309199 		Uiso   ? 		O 		-0.63399
O 1.0  		0.5876672319577917 		0.23573425036115825  0.6770917010300077 		Uiso   ? 		O 		-0.63399
O 1.0  		0.3378007034733999 		0.4848156522831481  0.674592548956604 		Uiso   ? 		O 		-0.63399
O 1.0  		0.0873453300672068 		0.7391966585013504  0.6742355272318321 		Uiso   ? 		O 		-0.63399
O 1.0  		0.9835673010489292 		0.14878148357515233  0.34684660561595176 		Uiso   ? 		O 		-0.64626
O 1.0  		0.4787309214245336 		0.6483182589033353  0.34613256216640786 		Uiso   ? 		O 		-0.64626
O 1.0  		0.2294532378619433 		0.9017178569185353  0.3457755404416359 		Uiso   ? 		O 		-0.64626
O 1.0  		0.7325230827209347 		0.3978628854971422  0.3470251164783377 		Uiso   ? 		O 		-0.64626
O 1.0  		0.7303639846743296 		0.898577350668928  0.3470251164783377 		Uiso   ? 		O 		-0.64626
O 1.0  		0.47990861126813644 		0.150744299981157  0.3477391599278816 		Uiso   ? 		O 		-0.64626
O 1.0  		0.23004208278374472 		0.40355505307455564  0.35041682286367126 		Uiso   ? 		O 		-0.64626
O 1.0  		0.9798379498775203 		0.6487108221845362  0.345061496992092 		Uiso   ? 		O 		-0.64626
O 1.0  		0.9825858928459269 		0.15211827146536022  0.6554918866813046 		Uiso   ? 		O 		-0.64429
O 1.0  		0.4824602725959425 		0.652440173355945  0.6576340170299363 		Uiso   ? 		O 		-0.64429
O 1.0  		0.23200489918974934 		0.9026992651215376  0.6553133758189186 		Uiso   ? 		O 		-0.64429
O 1.0  		0.7348784624081403 		0.401592236668551  0.6581695496170942 		Uiso   ? 		O 		-0.64429
O 1.0  		0.733504490923937 		0.9025029834809372  0.6592406147914102 		Uiso   ? 		O 		-0.64429
O 1.0  		0.48461937064254756 		0.1483889202939514  0.6572769953051644 		Uiso   ? 		O 		-0.64429
O 1.0  		0.23161233590854843 		0.40296620815275425  0.6578125278923223 		Uiso   ? 		O 		-0.64429
O 1.0  		0.9810156397211232 		0.6547955530431505  0.659419125653796 		Uiso   ? 		O 		-0.64429
O 1.0  		0.9101579674643552 		0.3083584573833302  0.34524000785447795 		Uiso   ? 		O 		-0.64049
O 1.0  		0.4084620940895672 		0.8090729225551159  0.34720362734072374 		Uiso   ? 		O 		-0.64049
O 1.0  		0.16134350857358207 		0.061043590226744555  0.34738213820310965 		Uiso   ? 		O 		-0.64049
O 1.0  		0.6565620878085549 		0.5576361409459205  0.3480961816526536 		Uiso   ? 		O 		-0.64049
O 1.0  		0.661272847182966 		0.057510520695936186  0.34613256216640786 		Uiso   ? 		O 		-0.64049
O 1.0  		0.40846209408956724 		0.31306921675774135  0.3463110730287938 		Uiso   ? 		O 		-0.64049
O 1.0  		0.15408108787136485 		0.5617580553985303  0.34470447526732007 		Uiso   ? 		O 		-0.64049
O 1.0  		0.909569122542554 		0.8057361346649081  0.3502383120012853 		Uiso   ? 		O 		-0.64049
O 1.0  		0.9138873186357641 		0.3146394698825451  0.6590621039290242 		Uiso   ? 		O 		-0.63930
O 1.0  		0.40963978393317 		0.8098580491175179  0.6556703975436906 		Uiso   ? 		O 		-0.63930
O 1.0  		0.15820300232397463 		0.064184096476352  0.6562059301308485 		Uiso   ? 		O 		-0.63930
O 1.0  		0.6632356635889706 		0.5611692104767289  0.659597636516182 		Uiso   ? 		O 		-0.63930
O 1.0  		0.6620579737453678 		0.060651026945543626  0.6565629518556204 		Uiso   ? 		O 		-0.63930
O 1.0  		0.4116026003391747 		0.3063956409773256  0.659597636516182 		Uiso   ? 		O 		-0.63930
O 1.0  		0.15957697380817784 		0.5609729288361285  0.6531712454702868 		Uiso   ? 		O 		-0.63930
O 1.0  		0.9127096287921614 		0.814176245210728  0.6537067780574448 		Uiso   ? 		O 		-0.63930
O 1.0  		0.06222128007034732 		0.3397635198794046  0.31971295453328336 		Uiso   ? 		O 		-0.63997
O 1.0  		0.5595989573519251 		0.839496576848188  0.31899891108373946 		Uiso   ? 		O 		-0.63997
O 1.0  		0.3148357515231456 		0.08950442811381196  0.3154286938360199 		Uiso   ? 		O 		-0.63997
O 1.0  		0.8084840776333145 		0.5896300483637963  0.3193559328085114 		Uiso   ? 		O 		-0.63997
O 1.0  		0.8133911186483261 		0.09146724451981661  0.3186418893589675 		Uiso   ? 		O 		-0.63997
O 1.0  		0.5611692104767289 		0.33937095659820365  0.3209625305699852 		Uiso   ? 		O 		-0.63997
O 1.0  		0.30894730230513157 		0.5908077382073991  0.3195344436708974 		Uiso   ? 		O 		-0.63997
O 1.0  		0.06123987186734497 		0.8430296463789964  0.3172138024598797 		Uiso   ? 		O 		-0.63997
O 1.0  		0.06634319452295707 		0.34329658941021296  0.6305003659472679 		Uiso   ? 		O 		-0.63860
O 1.0  		0.5625431819609321 		0.8414593932541926  0.629250789910566 		Uiso   ? 		O 		-0.63860
O 1.0  		0.31267665347654044 		0.09048583631681428  0.6288937681857941 		Uiso   ? 		O 		-0.63860
O 1.0  		0.8139799635701276 		0.5917891464104014  0.6256805726628466 		Uiso   ? 		O 		-0.63860
O 1.0  		0.8147650901325294 		0.09500031405062496  0.62996483336011 		Uiso   ? 		O 		-0.63860
O 1.0  		0.5647022800075372 		0.3391746749576032  0.629786322497724 		Uiso   ? 		O 		-0.63860
O 1.0  		0.31463946988254504 		0.5902188932855977  0.6305003659472679 		Uiso   ? 		O 		-0.63860
O 1.0  		0.06261384335154822 		0.8438147729413983  0.6265731269747764 		Uiso   ? 		O 		-0.63860
O 1.0  		0.9501994221468502 		0.2979555304315056  0.31239400917545834 		Uiso   ? 		O 		-0.93925
O 1.0  		0.44987752025626526 		0.8022030651340997  0.31382209607454614 		Uiso   ? 		O 		-0.93925
O 1.0  		0.2002072734124741 		0.05142578983732178  0.31096592227637054 		Uiso   ? 		O 		-0.93925
O 1.0  		0.6950332893662459 		0.5474294956346963  0.3127510309002303 		Uiso   ? 		O 		-0.93925
O 1.0  		0.7028845549902645 		0.050051818353118525  0.3132865634873882 		Uiso   ? 		O 		-0.93925
O 1.0  		0.4475221405690597 		0.30011462847811066  0.3127510309002303 		Uiso   ? 		O 		-0.93925
O 1.0  		0.19471138747566105 		0.5493923120407009  0.30989485710205467 		Uiso   ? 		O 		-0.93925
O 1.0  		0.9501994221468502 		0.794744362791282  0.3127510309002303 		Uiso   ? 		O 		-0.93925
O 1.0  		0.950591985428051 		0.3056105144149237  0.6235384423142148 		Uiso   ? 		O 		-0.93526
O 1.0  		0.44987752025626526 		0.7998476854468941  0.622467377139899 		Uiso   ? 		O 		-0.93526
O 1.0  		0.1974593304440676 		0.053192324602725966  0.6215748228279692 		Uiso   ? 		O 		-0.93526
O 1.0  		0.7020994284278627 		0.5501774386031029  0.6242524857637587 		Uiso   ? 		O 		-0.93526
O 1.0  		0.6993514854594561 		0.05142578983732178  0.6219318445527411 		Uiso   ? 		O 		-0.93526
O 1.0  		0.45184033666226997 		0.2977592487909051  0.6247880183509167 		Uiso   ? 		O 		-0.93526
O 1.0  		0.19942214685007223 		0.5482146221970983  0.6196112033417234 		Uiso   ? 		O 		-0.93526
O 1.0  		0.9523585201934553 		0.8049510081025062  0.6201467359288814 		Uiso   ? 		O 		-0.93526
O 1.0  		0.04455593241630549 		0.29442246090069724  0.30400399864331745 		Uiso   ? 		O 		-0.98929
O 1.0  		0.5425224546196847 		0.7925852647446769  0.30436102036808943 		Uiso   ? 		O 		-0.98929
O 1.0  		0.29520758746309905 		0.04141542616669807  0.30257591174422965 		Uiso   ? 		O 		-0.98929
O 1.0  		0.7890521952138685 		0.544288989385089  0.30221889001945773 		Uiso   ? 		O 		-0.98929
O 1.0  		0.7929778280258778 		0.04494849569750644  0.30364697691854553 		Uiso   ? 		O 		-0.98929
O 1.0  		0.5427187362602852 		0.2922633628540921  0.30703868330387907 		Uiso   ? 		O 		-0.98929
O 1.0  		0.29187079957289114 		0.5425224546196847  0.3027544226066156 		Uiso   ? 		O 		-0.98929
O 1.0  		0.044359650775705 		0.7957257709942844  0.30150484656991383 		Uiso   ? 		O 		-0.98929
O 1.0  		0.046126185541109206 		0.2959927140255009  0.6138988557453722 		Uiso   ? 		O 		-0.99111
O 1.0  		0.5452703975880913 		0.7943517995100811  0.615148431782074 		Uiso   ? 		O 		-0.99111
O 1.0  		0.29363733433829536 		0.04396708749450412  0.6138988557453722 		Uiso   ? 		O 		-0.99111
O 1.0  		0.7963146159160858 		0.5440927077444884  0.6140773666077581 		Uiso   ? 		O 		-0.99111
O 1.0  		0.7990625588844922 		0.04946297343131713  0.6138988557453722 		Uiso   ? 		O 		-0.99111
O 1.0  		0.5462518057910936 		0.2922633628540921  0.614791410057302 		Uiso   ? 		O 		-0.99111
O 1.0  		0.2942261792600967 		0.5427187362602852  0.6130063014334423 		Uiso   ? 		O 		-0.99111
O 1.0  		0.04553734061930779 		0.7965108975566861  0.6117567253967404 		Uiso   ? 		O 		-0.99111
O 1.0  		0.9535362100370579 		0.2463334589535833  0.3331012692122316 		Uiso   ? 		O 		-0.99474
O 1.0  		0.45144777338106895 		0.7486181772501728  0.33113764972598586 		Uiso   ? 		O 		-0.99474
O 1.0  		0.203151498021481 		0.9998586772187678  0.33006658455167 		Uiso   ? 		O 		-0.99474
O 1.0  		0.699744048740657 		0.49678883235977644  0.3345293561113194 		Uiso   ? 		O 		-0.99474
O 1.0  		0.7038659631932667 		0.9969144526097607  0.3323872257626877 		Uiso   ? 		O 		-0.99474
O 1.0  		0.4504663651780667 		0.25025909176559263  0.3363144647351791 		Uiso   ? 		O 		-0.99474
O 1.0  		0.20099239997487595 		0.5026772815777903  0.3322087149003017 		Uiso   ? 		O 		-0.99474
O 1.0  		0.9517696752716539 		0.7456739526411658  0.3322087149003017 		Uiso   ? 		O 		-0.99474
O 1.0  		0.9551064631618617 		0.25339959801520007  0.6435316589014441 		Uiso   ? 		O 		-0.99660
O 1.0  		0.4526254632246718 		0.7490107405313736  0.6426391045895143 		Uiso   ? 		O 		-0.99660
O 1.0  		0.20177752653727782 		0.0027479429684065075  0.6424605937271284 		Uiso   ? 		O 		-0.99660
O 1.0  		0.7070064694428743 		0.5003219018905848  0.6438886806262162 		Uiso   ? 		O 		-0.99660
O 1.0  		0.7060250612398717 		0.998680987375165  0.6428176154519003 		Uiso   ? 		O 		-0.99660
O 1.0  		0.454784561271277 		0.24574461403178194  0.6444242132133741 		Uiso   ? 		O 		-0.99660
O 1.0  		0.20354406130268196 		0.4989479304063815  0.6422820828647423 		Uiso   ? 		O 		-0.99660
O 1.0  		0.9549101815212613 		0.7527400917027826  0.6396044199289528 		Uiso   ? 		O 		-0.99660
O 1.0  		0.9635465737076817 		0.038471201557691105  0.21010728502829398 		Uiso   ? 		O 		-0.99782
O 1.0  		0.46028044720808997 		0.538400540167075  0.21189239365215376 		Uiso   ? 		O 		-0.99782
O 1.0  		0.21453583317630798 		0.7868930971672635  0.20760813295489033 		Uiso   ? 		O 		-0.99782
O 1.0  		0.7156428616292947 		0.2918707995728912  0.21010728502829398 		Uiso   ? 		O 		-0.99782
O 1.0  		0.7134837635826895 		0.7882670686514667  0.20760813295489033 		Uiso   ? 		O 		-0.99782
O 1.0  		0.46047672884869045 		0.04121914452609761  0.21046430675306593 		Uiso   ? 		O 		-0.99782
O 1.0  		0.21159160856730105 		0.2879451667608819  0.21260643710169766 		Uiso   ? 		O 		-0.99782
O 1.0  		0.9615837573016771 		0.5387931034482759  0.20778664381727627 		Uiso   ? 		O 		-0.99782
O 1.0  		0.20688084919288988 		0.29402989761949627  0.517145968332173 		Uiso   ? 		O 		-1.00074
O 1.0  		0.7034733999120659 		0.7957257709942844  0.5162534140202432 		Uiso   ? 		O 		-1.00074
O 1.0  		0.4577287858802839 		0.042789397650901326  0.5157178814330852 		Uiso   ? 		O 		-1.00074
O 1.0  		0.9545176182400604 		0.540952201494881  0.5132187293596816 		Uiso   ? 		O 		-1.00074
O 1.0  		0.9615837573016771 		0.03984517304189436  0.5128617076349097 		Uiso   ? 		O 		-1.00074
O 1.0  		0.70523993467747 		0.29461874254129766  0.516967457469787 		Uiso   ? 		O 		-1.00074
O 1.0  		0.4559622511148797 		0.5427187362602852  0.5151823488459273 		Uiso   ? 		O 		-1.00074
O 1.0  		0.20491803278688522 		0.7931741096664784  0.5144683053963834 		Uiso   ? 		O 		-1.00074
O 1.0  		0.9584432510520696 		0.04887412850951574  0.8279333797461575 		Uiso   ? 		O 		-0.99906
O 1.0  		0.456943659317882 		0.5446815526662898  0.8265052928470698 		Uiso   ? 		O 		-0.99906
O 1.0  		0.20648828591168894 		0.796903460837887  0.8270408254342277 		Uiso   ? 		O 		-0.99906
O 1.0  		0.7095581307706803 		0.2977592487909051  0.8290044449204735 		Uiso   ? 		O 		-0.99906
O 1.0  		0.7048473713962692 		0.7994551221656933  0.8307895535443333 		Uiso   ? 		O 		-0.99906
O 1.0  		0.4587101940832863 		0.045341058978707376  0.8275763580213856 		Uiso   ? 		O 		-0.99906
O 1.0  		0.21080648200489918 		0.29540386910369953  0.8279333797461575 		Uiso   ? 		O 		-0.99906
O 1.0  		0.9592283776144714 		0.5462518057910936  0.8286474231957016 		Uiso   ? 		O 		-0.99906
O 1.0  		0.9507882670686516 		0.45066264681866713  0.19689748121173173 		Uiso   ? 		O 		-0.96478
O 1.0  		0.45242918158407136 		0.9496105772250487  0.1981470572484336 		Uiso   ? 		O 		-0.96478
O 1.0  		0.2025626530996797 		0.1978518937252685  0.19689748121173173 		Uiso   ? 		O 		-0.96478
O 1.0  		0.7040622448338673 		0.700136612021858  0.1967189703493458 		Uiso   ? 		O 		-0.96478
O 1.0  		0.7060250612398719 		0.1984407386470699  0.19761152466127566 		Uiso   ? 		O 		-0.96478
O 1.0  		0.45085892845926767 		0.44477419760065323  0.19779003552366164 		Uiso   ? 		O 		-0.96478
O 1.0  		0.203151498021481 		0.6966035424910496  0.19457684000071407 		Uiso   ? 		O 		-0.96478
O 1.0  		0.9549101815212612 		0.9482366057408456  0.19439832913832808 		Uiso   ? 		O 		-0.96478
O 1.0  		0.9494142955844482 		0.4473258589284593  0.5062568057266285 		Uiso   ? 		O 		-0.93407
O 1.0  		0.44948495697506435 		0.9486291690220464  0.5078634034881023 		Uiso   ? 		O 		-0.93407
O 1.0  		0.20177752653727782 		0.19902958356887132  0.5082204252128742 		Uiso   ? 		O 		-0.93407
O 1.0  		0.6987626405376547 		0.6995477671000566  0.5080419143504883 		Uiso   ? 		O 		-0.93407
O 1.0  		0.7020994284278627 		0.19922586520947175  0.5085774469376462 		Uiso   ? 		O 		-0.93407
O 1.0  		0.4467370140066579 		0.4485035487720621  0.5066138274514005 		Uiso   ? 		O 		-0.93407
O 1.0  		0.203151498021481 		0.6991552038188557  0.5067923383137865 		Uiso   ? 		O 		-0.93407
O 1.0  		0.9498068588656492 		0.9464700709754413  0.5067923383137865 		Uiso   ? 		O 		-0.93407
O 1.0  		0.19883330192827084 		0.19471138747566108  0.8131169781681216 		Uiso   ? 		O 		-0.97300
O 1.0  		0.6973886690534514 		0.6973886690534514  0.8141880433424374 		Uiso   ? 		O 		-0.97300
O 1.0  		0.44575560580365553 		0.9519659569122543  0.8131169781681216 		Uiso   ? 		O 		-0.97300
O 1.0  		0.950591985428051 		0.44614816908485655  0.810617826094718 		Uiso   ? 		O 		-0.97300
O 1.0  		0.9452923811318383 		0.945488662772439  0.8140095324800514 		Uiso   ? 		O 		-0.97300
O 1.0  		0.6975849506940519 		0.1984407386470699  0.8124029347185777 		Uiso   ? 		O 		-0.97300
O 1.0  		0.44712957728785885 		0.4439890710382514  0.8113318695442618 		Uiso   ? 		O 		-0.97300
O 1.0  		0.1992258652094717 		0.699744048740657  0.8125814455809636 		Uiso   ? 		O 		-0.97300
O 1.0  		0.0561365492117329 		0.4418299729916463  0.16458701511987006 		Uiso   ? 		O 		-0.97742
O 1.0  		0.5560658878211168 		0.9405816217574273  0.16280190649601028 		Uiso   ? 		O 		-0.97742
O 1.0  		0.3085547390239307 		0.19902958356887132  0.16173084132169444 		Uiso   ? 		O 		-0.97742
O 1.0  		0.8078952327115131 		0.6936593178820426  0.16012424356022065 		Uiso   ? 		O 		-0.97742
O 1.0  		0.8096617674769173 		0.19255228942905597  0.15923168924829076 		Uiso   ? 		O 		-0.97742
O 1.0  		0.55743985930532 		0.44438163431945227  0.16155233045930847 		Uiso   ? 		O 		-0.97742
O 1.0  		0.3073770491803278 		0.6936593178820426  0.157446580624431 		Uiso   ? 		O 		-0.97742
O 1.0  		0.06143615350794543 		0.9447035362100371  0.1588746675235188 		Uiso   ? 		O 		-0.97742
O 1.0  		0.053388606243326406 		0.44693329564725837  0.46769845945125765 		Uiso   ? 		O 		-0.94491
O 1.0  		0.5535142264933106 		0.9517696752716539  0.4678769703136436 		Uiso   ? 		O 		-0.94491
O 1.0  		0.3056105144149237 		0.19902958356887132  0.46698441600171375 		Uiso   ? 		O 		-0.94491
O 1.0  		0.8018105018528987 		0.6973886690534514  0.4664488834145558 		Uiso   ? 		O 		-0.94491
O 1.0  		0.8033807549777024 		0.1978518937252685  0.46966207893750334 		Uiso   ? 		O 		-0.94491
O 1.0  		0.5523365366497079 		0.4494849569750644  0.4707331441118192 		Uiso   ? 		O 		-0.94491
O 1.0  		0.3069844858991269 		0.7013143018654607  0.4664488834145558 		Uiso   ? 		O 		-0.94491
O 1.0  		0.052210916399723584 		0.9486291690220464  0.4664488834145558 		Uiso   ? 		O 		-0.94491
O 1.0  		0.055351422649331045 		0.45164405502166954  0.7775933165533123 		Uiso   ? 		O 		-0.94891
O 1.0  		0.5517476917279065 		0.9545176182400604  0.7774148056909265 		Uiso   ? 		O 		-0.94891
O 1.0  		0.30423654293072044 		0.2007961183342755  0.779378425177172 		Uiso   ? 		O 		-0.94891
O 1.0  		0.7998476854468941 		0.7032771182714654  0.7750941644799085 		Uiso   ? 		O 		-0.94891
O 1.0  		0.8033807549777024 		0.20334777966208153  0.7774148056909265 		Uiso   ? 		O 		-0.94891
O 1.0  		0.5529253815715094 		0.44968123861566484  0.7784858708652421 		Uiso   ? 		O 		-0.94891
O 1.0  		0.30168488160291435 		0.7005291753030589  0.7786643817276282 		Uiso   ? 		O 		-0.94891
O 1.0  		0.05162207147792219 		0.9529473651152567  0.7802709794891021 		Uiso   ? 		O 		-0.94891
O 1.0  		0.7984737139626907 		0.29128195465108975  0.14370124422071084 		Uiso   ? 		O 		-1.01892
O 1.0  		0.2987406569939074 		0.795136926072483  0.14727146146843034 		Uiso   ? 		O 		-1.01892
O 1.0  		0.047696438665912944 		0.03964889140129389  0.14495082025741268 		Uiso   ? 		O 		-1.01892
O 1.0  		0.5450741159474908 		0.5403633565730797  0.14780699405558828 		Uiso   ? 		O 		-1.01892
O 1.0  		0.5466443690722945 		0.042985679291501794  0.14852103750513218 		Uiso   ? 		O 		-1.01892
O 1.0  		0.29481502418189814 		0.29461874254129766  0.14869954836751817 		Uiso   ? 		O 		-1.01892
O 1.0  		0.04592990390050873 		0.5423261729790843  0.1447723093950267 		Uiso   ? 		O 		-1.01892
O 1.0  		0.7984737139626907 		0.7949406444318824  0.1454863528445706 		Uiso   ? 		O 		-1.01892
O 1.0  		0.8039695998995039 		0.2959927140255009  0.19225619878969635 		Uiso   ? 		O 		-0.96505
O 1.0  		0.30443282457132087 		0.7972960241190881  0.19654045948695978 		Uiso   ? 		O 		-0.96505
O 1.0  		0.05711795741473526 		0.04612618554110923  0.19386279655117017 		Uiso   ? 		O 		-0.96505
O 1.0  		0.5509625651655047 		0.5491960304001006  0.19618343776218783 		Uiso   ? 		O 		-0.96505
O 1.0  		0.5535142264933107 		0.04750015702531248  0.19707599207411775 		Uiso   ? 		O 		-0.96505
O 1.0  		0.30423654293072044 		0.30129231832171344  0.1967189703493458 		Uiso   ? 		O 		-0.96505
O 1.0  		0.05083694491552035 		0.5472332139940959  0.19421981827594212 		Uiso   ? 		O 		-0.96505
O 1.0  		0.8049510081025062 		0.8012216569310973  0.19421981827594212 		Uiso   ? 		O 		-0.96505
O 1.0  		0.7931741096664784 		0.29363733433829536  0.46037951409343264 		Uiso   ? 		O 		-0.99110
O 1.0  		0.2946187425412976 		0.794744362791282  0.45805887288241487 		Uiso   ? 		O 		-0.99110
O 1.0  		0.04750015702531248 		0.04612618554110923  0.45734482943287097 		Uiso   ? 		O 		-0.99110
O 1.0  		0.5448778343068903 		0.5458592425098927  0.46037951409343264 		Uiso   ? 		O 		-0.99110
O 1.0  		0.5478220589158973 		0.04612618554110923  0.457701851157643 		Uiso   ? 		O 		-0.99110
O 1.0  		0.29442246090069724 		0.2934410526976949  0.46037951409343264 		Uiso   ? 		O 		-0.99110
O 1.0  		0.0422005527290999 		0.5458592425098927  0.45788036202002896 		Uiso   ? 		O 		-0.99110
O 1.0  		0.7923889831040765 		0.7941555178694807  0.45805887288241487 		Uiso   ? 		O 		-0.99110
O 1.0  		0.8020067834934993 		0.301096036681113  0.5092914903871901 		Uiso   ? 		O 		-0.93529
O 1.0  		0.3012923183217134 		0.8018105018528987  0.5067923383137865 		Uiso   ? 		O 		-0.93529
O 1.0  		0.05594026757113246 		0.04926669179071667  0.5057212731394706 		Uiso   ? 		O 		-0.93529
O 1.0  		0.5513551284467056 		0.5527290999309089  0.5092914903871901 		Uiso   ? 		O 		-0.93529
O 1.0  		0.5537105081339112 		0.05476257772752969  0.5064353165890145 		Uiso   ? 		O 		-0.93529
O 1.0  		0.30305885308711766 		0.30384397964951954  0.5089344686624181 		Uiso   ? 		O 		-0.93529
O 1.0  		0.05358488788392686 		0.5511588468061052  0.5080419143504883 		Uiso   ? 		O 		-0.93529
O 1.0  		0.8016142202122982 		0.8004365303686956  0.5069708491761724 		Uiso   ? 		O 		-0.93529
O 1.0  		0.7931741096664784 		0.29501130582249857  0.7649190453239081 		Uiso   ? 		O 		-0.98985
O 1.0  		0.29147823629169023 		0.791407574901074  0.764740534461522 		Uiso   ? 		O 		-0.98985
O 1.0  		0.043181960932102255 		0.043181960932102255  0.764740534461522 		Uiso   ? 		O 		-0.98985
O 1.0  		0.5425224546196847 		0.5450741159474908  0.7649190453239081 		Uiso   ? 		O 		-0.98985
O 1.0  		0.5431112995414861 		0.04455593241630551  0.7627769149752762 		Uiso   ? 		O 		-0.98985
O 1.0  		0.29638527730670183 		0.2920670812134916  0.7627769149752762 		Uiso   ? 		O 		-0.98985
O 1.0  		0.04573362225990827 		0.5419336096978834  0.764740534461522 		Uiso   ? 		O 		-0.98985
O 1.0  		0.7896410401356698 		0.7937629545882796  0.7677752191220837 		Uiso   ? 		O 		-0.98985
O 1.0  		0.8076989510709127 		0.3099287105081339  0.8129384673057356 		Uiso   ? 		O 		-0.97569
O 1.0  		0.3063956409773255 		0.8075026694303122  0.8125814455809636 		Uiso   ? 		O 		-0.97569
O 1.0  		0.054566296086929214 		0.05770680233653665  0.8129384673057356 		Uiso   ? 		O 		-0.97569
O 1.0  		0.5562621694617172 		0.5556733245399159  0.8141880433424374 		Uiso   ? 		O 		-0.97569
O 1.0  		0.5594026757113247 		0.057510520695936186  0.8118674021314197 		Uiso   ? 		O 		-0.97569
O 1.0  		0.3061993593367251 		0.3097324288675335  0.8111533586818758 		Uiso   ? 		O 		-0.97569
O 1.0  		0.055155141008730584 		0.5594026757113247  0.8122244238561916 		Uiso   ? 		O 		-0.97569
O 1.0  		0.8065212612273099 		0.8065212612273099  0.8149020867919814 		Uiso   ? 		O 		-0.97569
C 1.0  		0.9806230764399223 		0.36233590854845804  0.2347417840375587 		Uiso   ? 		C 		-0.21927
C 1.0  		0.4814788643929401 		0.8630503737202438  0.2390260447348221 		Uiso   ? 		C 		-0.21927
C 1.0  		0.2241536335657308 		0.11678757615727656  0.2354558274871026 		Uiso   ? 		C 		-0.21927
C 1.0  		0.719175931160103 		0.6208388292192701  0.2384905121476642 		Uiso   ? 		C 		-0.21927
C 1.0  		0.7391966585013504 		0.10952515545505938  0.23313518627608493 		Uiso   ? 		C 		-0.21927
C 1.0  		0.4753941335343258 		0.39727404057534077  0.25170031596422643 		Uiso   ? 		C 		-0.21927
C 1.0  		0.22690157653413728 		0.6133801268764525  0.2317070993769971 		Uiso   ? 		C 		-0.21927
C 1.0  		0.9804267947993217 		0.8642280635638465  0.23277816455131298 		Uiso   ? 		C 		-0.21927
C 1.0  		0.9835673010489292 		0.362728471829659  0.5460647280387012 		Uiso   ? 		C 		-0.21367
C 1.0  		0.4820677093147415 		0.8638355002826456  0.5449936628643853 		Uiso   ? 		C 		-0.21367
C 1.0  		0.22395735192513036 		0.11718013943847748  0.5446366411396134 		Uiso   ? 		C 		-0.21367
C 1.0  		0.7340933358457384 		0.6100433389862446  0.5430300433781395 		Uiso   ? 		C 		-0.21367
C 1.0  		0.7266346335029207 		0.11737642107907795  0.547492814937789 		Uiso   ? 		C 		-0.21367
C 1.0  		0.4830491175177439 		0.36233590854845804  0.5451721737267713 		Uiso   ? 		C 		-0.21367
C 1.0  		0.22827554801834055 		0.6171094780478614  0.5439225976900695 		Uiso   ? 		C 		-0.21367
C 1.0  		0.9841561459707305 		0.8632466553608441  0.5423159999285957 		Uiso   ? 		C 		-0.21367
C 1.0  		0.891903774888512 		0.2530070347339991  0.2301005016155233 		Uiso   ? 		C 		0.31009
C 1.0  		0.39295584448213045 		0.7582359776395955  0.22992199075313735 		Uiso   ? 		C 		0.31009
C 1.0  		0.14407072420074116 		0.011776898436027888  0.2302790124779093 		Uiso   ? 		C 		0.31009
C 1.0  		0.6402707116387162 		0.4989479304063815  0.23438476231278674 		Uiso   ? 		C 		0.31009
C 1.0  		0.6434112178883237 		0.0070661390616167325  0.23045752334029526 		Uiso   ? 		C 		0.31009
C 1.0  		0.3862822687017147 		0.2516330632497959  0.23420625145040078 		Uiso   ? 		C 		0.31009
C 1.0  		0.1370045851391244 		0.5067991960304001  0.23063603420268125 		Uiso   ? 		C 		0.31009
C 1.0  		0.8891558319201056 		0.7558805979523899  0.2333136971384709 		Uiso   ? 		C 		0.31009
C 1.0  		0.8907260850449094 		0.2571289491866089  0.5439225976900695 		Uiso   ? 		C 		0.31101
C 1.0  		0.38981533823252307 		0.7527400917027826  0.5428515325157536 		Uiso   ? 		C 		0.31101
C 1.0  		0.13975252810753094 		0.007654983983418127  0.5435655759652975 		Uiso   ? 		C 		0.31101
C 1.0  		0.6351673889831042 		0.4946297343131713  0.5448151520019994 		Uiso   ? 		C 		0.31101
C 1.0  		0.6430186546071227 		0.012954588279630678  0.5432085542405256 		Uiso   ? 		C 		0.31101
C 1.0  		0.3917781546385278 		0.253792161296401  0.5433870651029116 		Uiso   ? 		C 		0.31101
C 1.0  		0.1358268952955216 		0.49777024056277874  0.5401738695799639 		Uiso   ? 		C 		0.31101
C 1.0  		0.8938665912945167 		0.7631430186546071  0.5378532283689462 		Uiso   ? 		C 		0.31101
C 1.0  		0.9975032975315621 		0.13739714842032535  0.43181777611167643 		Uiso   ? 		C 		-0.07147
C 1.0  		0.4865821870485522 		0.6412521198417185  0.43092522179974657 		Uiso   ? 		C 		-0.07147
C 1.0  		0.24123013629797121 		0.8901372401231079  0.4293186240382727 		Uiso   ? 		C 		-0.07147
C 1.0  		0.7313453928773319 		0.3470259405816218  0.4102179617629733 		Uiso   ? 		C 		-0.07147
C 1.0  		0.7425334463915584 		0.8871930155141008  0.43092522179974657 		Uiso   ? 		C 		-0.07147
C 1.0  		0.4897226932981597 		0.13935996482633  0.43306735214837827 		Uiso   ? 		C 		-0.07147
C 1.0  		0.24633345895358327 		0.3888339300295208  0.43431692818508005 		Uiso   ? 		C 		-0.07147
C 1.0  		0.9910260033917468 		0.6404669932793167  0.43235330869883437 		Uiso   ? 		C 		-0.07147
C 1.0  		0.9865115256579361 		0.13621945857672257  0.7392134811403275 		Uiso   ? 		C 		-0.07416
C 1.0  		0.4914892280635638 		0.640663274919917  0.7409985897641872 		Uiso   ? 		C 		-0.07416
C 1.0  		0.242407826141574 		0.8901372401231079  0.7409985897641872 		Uiso   ? 		C 		-0.07416
C 1.0  		0.7368412788141449 		0.3929558444821305  0.742605187525661 		Uiso   ? 		C 		-0.07416
C 1.0  		0.7421408831103574 		0.8895483952013065  0.7427836983880469 		Uiso   ? 		C 		-0.07416
C 1.0  		0.48933013001695874 		0.14093021795113372  0.743676252699977 		Uiso   ? 		C 		-0.07416
C 1.0  		0.24162269957917218 		0.3900116198731236  0.7427836983880469 		Uiso   ? 		C 		-0.07416
C 1.0  		0.9925962565165506 		0.6428223729665222  0.7434977418375909 		Uiso   ? 		C 		-0.07416
C 1.0  		0.11580616795427422 		0.27636454996545445  0.42967564576304473 		Uiso   ? 		C 		-0.13863
C 1.0  		0.6100433389862446 		0.7619653288110044  0.43038968921258863 		Uiso   ? 		C 		-0.13863
C 1.0  		0.3635135983920608 		0.01668393945103951  0.43146075438690445 		Uiso   ? 		C 		-0.13863
C 1.0  		0.8716867659066642 		0.5258385151686452  0.42360627644192156 		Uiso   ? 		C 		-0.13863
C 1.0  		0.86992023114126 		0.02375007851265624  0.427533515414413 		Uiso   ? 		C 		-0.13863
C 1.0  		0.6555806796055524 		0.259288047233214  0.4089683857262715 		Uiso   ? 		C 		-0.13863
C 1.0  		0.3609619370642547 		0.5181835311852271  0.4327103304236063 		Uiso   ? 		C 		-0.13863
C 1.0  		0.11345078826706861 		0.7713868475598267  0.4282475588639569 		Uiso   ? 		C 		-0.13863
C 1.0  		0.15722159412097228 		0.2653727780918284  0.7186847319659402 		Uiso   ? 		C 		-0.14531
C 1.0  		0.6485145405439356 		0.7757050436530369  0.7235045252503615 		Uiso   ? 		C 		-0.14531
C 1.0  		0.4021810815903524 		0.02532033163745996  0.7181491993787822 		Uiso   ? 		C 		-0.14531
C 1.0  		0.864424345204447 		0.5183798128258276  0.7388564594155556 		Uiso   ? 		C 		-0.14531
C 1.0  		0.9005401670749326 		0.023161233590854848  0.7243970795622914 		Uiso   ? 		C 		-0.14531
C 1.0  		0.6504773569499404 		0.2783273663714591  0.7211838840393439 		Uiso   ? 		C 		-0.14531
C 1.0  		0.40473274291815836 		0.513080208529615  0.7172566450668523 		Uiso   ? 		C 		-0.14531
C 1.0  		0.15349224294956343 		0.7745273538094342  0.7188632428283261 		Uiso   ? 		C 		-0.14531
C 1.0  		0.09990735506563655 		0.3686169210476729  0.21653367607418914 		Uiso   ? 		C 		0.30416
C 1.0  		0.6017995100810251 		0.8663871616104516  0.2085006872668202 		Uiso   ? 		C 		0.30416
C 1.0  		0.3523255448778343 		0.11992808240688399  0.21010728502829398 		Uiso   ? 		C 		0.30416
C 1.0  		0.850880912003015 		0.6182871678914641  0.21099983934022384 		Uiso   ? 		C 		0.30416
C 1.0  		0.8532362916902206 		0.11619873123547517  0.2092147307163641 		Uiso   ? 		C 		0.30416
C 1.0  		0.6016032284404246 		0.36586897807926644  0.2061800460558025 		Uiso   ? 		C 		0.30416
C 1.0  		0.34977388355002825 		0.6149503800012562  0.20582302433103056 		Uiso   ? 		C 		0.30416
C 1.0  		0.10422555115884677 		0.8659945983292507  0.21028579589067994 		Uiso   ? 		C 		0.30416
C 1.0  		0.10245901639344261 		0.3725425538596822  0.5203591638551206 		Uiso   ? 		C 		0.30220
C 1.0  		0.5972850323472144 		0.8709016393442625  0.5119691533229798 		Uiso   ? 		C 		0.30220
C 1.0  		0.3548772062056404 		0.12169461717228817  0.5205376747175066 		Uiso   ? 		C 		0.30220
C 1.0  		0.8483292506752089 		0.6169131964072608  0.5150038379835413 		Uiso   ? 		C 		0.30220
C 1.0  		0.8528437284090196 		0.11659129451667609  0.5117906424605938 		Uiso   ? 		C 		0.30220
C 1.0  		0.6017995100810251 		0.3729351171408831  0.5217872507542084 		Uiso   ? 		C 		0.30220
C 1.0  		0.3529143897996357 		0.6237830538282771  0.517502990056945 		Uiso   ? 		C 		0.30220
C 1.0  		0.09971107342503607 		0.867761133094655  0.516788946607401 		Uiso   ? 		C 		0.30220
C 1.0  		0.10481439608064819 		0.37156114565667986  0.8281118906085436 		Uiso   ? 		C 		0.30772
C 1.0  		0.6000329753156209 		0.8740421455938698  0.8240061407736661 		Uiso   ? 		C 		0.30772
C 1.0  		0.35271810815903526 		0.12169461717228817  0.8300755100947894 		Uiso   ? 		C 		0.30772
C 1.0  		0.8510771936436154 		0.6171094780478614  0.8034773915992789 		Uiso   ? 		C 		0.30772
C 1.0  		0.8546102631744238 		0.12463884178129515  0.8282904014709295 		Uiso   ? 		C 		0.30772
C 1.0  		0.6014069467998242 		0.3701871741724766  0.8248986950855961 		Uiso   ? 		C 		0.30772
C 1.0  		0.35095157339363103 		0.619464857735067  0.8273978471589997 		Uiso   ? 		C 		0.30772
C 1.0  		0.10226273475284212 		0.8724718924690661  0.8259697602599119 		Uiso   ? 		C 		0.30772
C 1.0  		0.8866041705922996 		0.3466333773004209  0.16369446080794017 		Uiso   ? 		C 		-0.15006
C 1.0  		0.38490829721751146 		0.850488348721814  0.17137042789053714 		Uiso   ? 		C 		-0.15006
C 1.0  		0.13307895232711514 		0.09892594686263426  0.14852103750513218 		Uiso   ? 		C 		-0.15006
C 1.0  		0.6332045725770995 		0.5974813139878149  0.1567325371748871 		Uiso   ? 		C 		-0.15006
C 1.0  		0.6349711073425036 		0.09833710194083287  0.15280529820239563 		Uiso   ? 		C 		-0.15006
C 1.0  		0.3833380440927078 		0.34643709565982034  0.1560184937253432 		Uiso   ? 		C 		-0.15006
C 1.0  		0.1332752339677156 		0.5957147792224107  0.1590531783859048 		Uiso   ? 		C 		-0.15006
C 1.0  		0.8871930155141008 		0.8489180955970104  0.16619361288134385 		Uiso   ? 		C 		-0.15006
C 1.0  		0.8840525092644934 		0.34643709565982034  0.4678769703136436 		Uiso   ? 		C 		-0.15077
C 1.0  		0.38176779096790403 		0.8495069405188117  0.4687695246255735 		Uiso   ? 		C 		-0.15077
C 1.0  		0.13896740154512907 		0.09912222850323472  0.46966207893750334 		Uiso   ? 		C 		-0.15077
C 1.0  		0.6345785440613028 		0.59964041203442  0.47430336135953877 		Uiso   ? 		C 		-0.15077
C 1.0  		0.6343822624207023 		0.10010363670623705  0.46984058979988935 		Uiso   ? 		C 		-0.15077
C 1.0  		0.3833380440927078 		0.34898875698762644  0.47233974187329303 		Uiso   ? 		C 		-0.15077
C 1.0  		0.13268638904591418 		0.5990515671126186  0.4734108070476089 		Uiso   ? 		C 		-0.15077
C 1.0  		0.8834636643426922 		0.8473478424722066  0.4709116549742052 		Uiso   ? 		C 		-0.15077
C 1.0  		0.8836599459832926 		0.3536995163620376  0.7738445884432068 		Uiso   ? 		C 		-0.14707
C 1.0  		0.3811789460461026 		0.8526474467684192  0.7833056641496635 		Uiso   ? 		C 		-0.14707
C 1.0  		0.13249010740531375 		0.10167388983104077  0.7788428925900143 		Uiso   ? 		C 		-0.14707
C 1.0  		0.6351673889831042 		0.6008181018780228  0.7750941644799085 		Uiso   ? 		C 		-0.14707
C 1.0  		0.6363450788267069 		0.10167388983104077  0.7704528820578732 		Uiso   ? 		C 		-0.14707
C 1.0  		0.3858897054205138 		0.3501664468312292  0.7734875667184349 		Uiso   ? 		C 		-0.14707
C 1.0  		0.1320975441241128 		0.602977199924628  0.7675967082596976 		Uiso   ? 		C 		-0.14707
C 1.0  		0.8805194397336851 		0.8512734752842158  0.779378425177172 		Uiso   ? 		C 		-0.14707
C 1.0  		0.9923999748759501 		0.4047327429181584  0.21635516521180315 		Uiso   ? 		C 		0.65463
C 1.0  		0.493255762828968 		0.9058397713711451  0.2181402738356629 		Uiso   ? 		C 		0.65463
C 1.0  		0.2465297405941838 		0.1527071163871616  0.21099983934022384 		Uiso   ? 		C 		0.65463
C 1.0  		0.7435148545945607 		0.6565620878085549  0.21581963262464524 		Uiso   ? 		C 		0.65463
C 1.0  		0.7464590792035677 		0.1523145531059607  0.2115353719273818 		Uiso   ? 		C 		0.65463
C 1.0  		0.49325576282896805 		0.40061082846554863  0.2108213284778379 		Uiso   ? 		C 		0.65463
C 1.0  		0.24495948746938004 		0.6536178631995478  0.20867919812920618 		Uiso   ? 		C 		0.65463
C 1.0  		0.9980921424533635 		0.9025029834809372  0.21010728502829398 		Uiso   ? 		C 		0.65463
C 1.0  		0.9935776647195529 		0.4053215878399598  0.5233938485156822 		Uiso   ? 		C 		0.65466
C 1.0  		0.49796652220337917 		0.9046620815275422  0.5226798050661383 		Uiso   ? 		C 		0.65466
C 1.0  		0.2475111487971861 		0.1523145531059607  0.5196451204055768 		Uiso   ? 		C 		0.65466
C 1.0  		0.7444962627975631 		0.6530290182777464  0.5216087398918224 		Uiso   ? 		C 		0.65466
C 1.0  		0.7442999811569625 		0.15584762263676907  0.5244649136899981 		Uiso   ? 		C 		0.65466
C 1.0  		0.4918817913447648 		0.4053215878399598  0.5244649136899981 		Uiso   ? 		C 		0.65466
C 1.0  		0.24790371207838702 		0.6544029897619497  0.5205376747175066 		Uiso   ? 		C 		0.65466
C 1.0  		0.9941665096413543 		0.9048583631681428  0.5219657616165944 		Uiso   ? 		C 		0.65466
C 1.0  		0.9841561459707305 		0.39020790151372403  0.23741944697334835 		Uiso   ? 		C 		-0.00497
C 1.0  		0.4863859054079518 		0.8911186483261102  0.23991859904675203 		Uiso   ? 		C 		-0.00497
C 1.0  		0.23907103825136614 		0.14034137302933233  0.23420625145040078 		Uiso   ? 		C 		-0.00497
C 1.0  		0.7374301237359463 		0.6422335280447208  0.23813349042289225 		Uiso   ? 		C 		-0.00497
C 1.0  		0.7374301237359463 		0.13700458513912442  0.23259965368892696 		Uiso   ? 		C 		-0.00497
C 1.0  		0.48560077884555 		0.38451573393631056  0.2309930559274532 		Uiso   ? 		C 		-0.00497
C 1.0  		0.23887475661076565 		0.6383078952327115  0.2308145450650672 		Uiso   ? 		C 		-0.00497
C 1.0  		0.9880817787827398 		0.8911186483261102  0.23277816455131298 		Uiso   ? 		C 		-0.00497
C 1.0  		0.9876892155015389 		0.3904041831543245  0.5449936628643853 		Uiso   ? 		C 		-0.00656
C 1.0  		0.49404088939136986 		0.8901372401231079  0.5449936628643853 		Uiso   ? 		C 		-0.00656
C 1.0  		0.23848219332956475 		0.14073393631053327  0.5423159999285957 		Uiso   ? 		C 		-0.00656
C 1.0  		0.7382152502983481 		0.6383078952327115  0.5442796194148414 		Uiso   ? 		C 		-0.00656
C 1.0  		0.7372338420953458 		0.14269675271653792  0.547314304075403 		Uiso   ? 		C 		-0.00656
C 1.0  		0.4857970604861504 		0.3898153382325231  0.5462432389010872 		Uiso   ? 		C 		-0.00656
C 1.0  		0.2420152628603731 		0.6404669932793167  0.5432085542405256 		Uiso   ? 		C 		-0.00656
C 1.0  		0.9876892155015389 		0.8901372401231079  0.5430300433781395 		Uiso   ? 		C 		-0.00656
C 1.0  		0.8481329690346083 		0.25909176559261354  0.2106428176154519 		Uiso   ? 		C 		0.65002
C 1.0  		0.3493813202688273 		0.7564694428741914  0.20957175244113604 		Uiso   ? 		C 		0.65002
C 1.0  		0.10128132654983985 		0.008243828905219523  0.20814366554204825 		Uiso   ? 		C 		0.65002
C 1.0  		0.5976775956284153 		0.5077806042334025  0.21207090451453972 		Uiso   ? 		C 		0.65002
C 1.0  		0.59964041203442 		0.0070661390616167325  0.2106428176154519 		Uiso   ? 		C 		0.65002
C 1.0  		0.34525940581621756 		0.26262483512342194  0.21314196968885557 		Uiso   ? 		C 		0.65002
C 1.0  		0.09441146912882355 		0.5101359839206081  0.2115353719273818 		Uiso   ? 		C 		0.65002
C 1.0  		0.8467589975504052 		0.7601987940456002  0.2108213284778379 		Uiso   ? 		C 		0.65002
C 1.0  		0.8465627159098047 		0.25850292067081215  0.5230368267909102 		Uiso   ? 		C 		0.65444
C 1.0  		0.3464370956598203 		0.761376483889203  0.5219657616165944 		Uiso   ? 		C 		0.65444
C 1.0  		0.09696313045662962 		0.008832673827020916  0.5196451204055768 		Uiso   ? 		C 		0.65444
C 1.0  		0.594144526097607 		0.5107248288424094  0.525893000589086 		Uiso   ? 		C 		0.65444
C 1.0  		0.5994441303938195 		0.010010363670623704  0.5217872507542084 		Uiso   ? 		C 		0.65444
C 1.0  		0.3470259405816218 		0.2569326675460084  0.5223227833413664 		Uiso   ? 		C 		0.65444
C 1.0  		0.09362634256642167 		0.5095471389988067  0.5203591638551206 		Uiso   ? 		C 		0.65444
C 1.0  		0.8493106588782112 		0.7570582877959928  0.518038522644103 		Uiso   ? 		C 		0.65444
C 1.0  		0.8673685698134539 		0.26635418629483076  0.22902943644120743 		Uiso   ? 		C 		-0.16762
C 1.0  		0.3650838515168645 		0.7627504553734062  0.22992199075313735 		Uiso   ? 		C 		-0.16762
C 1.0  		0.1160024495948747 		0.01629137616983858  0.2295649690283654 		Uiso   ? 		C 		-0.16762
C 1.0  		0.6163243514854595 		0.513472771810816  0.23117156678983916 		Uiso   ? 		C 		-0.16762
C 1.0  		0.616128069844859 		0.013739714842032538  0.23117156678983916 		Uiso   ? 		C 		-0.16762
C 1.0  		0.3639061616732618 		0.26792443941963445  0.23295667541369894 		Uiso   ? 		C 		-0.16762
C 1.0  		0.11266566170466676 		0.5179872495446266  0.2309930559274532 		Uiso   ? 		C 		-0.16762
C 1.0  		0.8638355002826456 		0.7658909616230137  0.2315285885146111 		Uiso   ? 		C 		-0.16762
C 1.0  		0.8642280635638465 		0.2659616230136298  0.5430300433781395 		Uiso   ? 		C 		-0.16422
C 1.0  		0.36488756987626403 		0.7666760881854155  0.5424945107909817 		Uiso   ? 		C 		-0.16422
C 1.0  		0.11246938006406633 		0.016095094529238116  0.5410664238918939 		Uiso   ? 		C 		-0.16422
C 1.0  		0.6143615350794548 		0.5136690534514164  0.5442796194148414 		Uiso   ? 		C 		-0.16422
C 1.0  		0.6163243514854595 		0.01589881288863765  0.5432085542405256 		Uiso   ? 		C 		-0.16422
C 1.0  		0.3641024433138622 		0.26183970856102007  0.5435655759652975 		Uiso   ? 		C 		-0.16422
C 1.0  		0.11286194334526722 		0.5126876452484141  0.539995358717578 		Uiso   ? 		C 		-0.16422
C 1.0  		0.8656020350480498 		0.7649095534200113  0.5387457826808761 		Uiso   ? 		C 		-0.16422
C 1.0  		0.98395986433013 		0.11286194334526725  0.3886181474142702 		Uiso   ? 		C 		-0.21841
C 1.0  		0.4820677093147415 		0.6098470573456442  0.38951070172620006 		Uiso   ? 		C 		-0.21841
C 1.0  		0.2294532378619433 		0.8626578104390428  0.3859404844784805 		Uiso   ? 		C 		-0.21841
C 1.0  		0.7494033038125747 		0.40002198354374724  0.4084328531391135 		Uiso   ? 		C 		-0.21841
C 1.0  		0.7315416745179323 		0.8603024307518372  0.38736857137756836 		Uiso   ? 		C 		-0.21841
C 1.0  		0.47460900697192393 		0.1160024495948747  0.38879665827665616 		Uiso   ? 		C 		-0.21841
C 1.0  		0.22650901325293635 		0.36685038628226874  0.39165283207483176 		Uiso   ? 		C 		-0.21841
C 1.0  		0.981800766283525 		0.6127912819546512  0.38915368000142814 		Uiso   ? 		C 		-0.21841
C 1.0  		0.9827821744865273 		0.11050656365806168  0.6945857655438333 		Uiso   ? 		C 		-0.21572
C 1.0  		0.4797123296275359 		0.613576408517053  0.697798961066781 		Uiso   ? 		C 		-0.21572
C 1.0  		0.2267052948935368 		0.864424345204447  0.6981559827915529 		Uiso   ? 		C 		-0.21572
C 1.0  		0.7313453928773319 		0.3644950065950631  0.6990485371034828 		Uiso   ? 		C 		-0.21572
C 1.0  		0.7348784624081403 		0.8612838389548395  0.6995840696906407 		Uiso   ? 		C 		-0.21572
C 1.0  		0.47716066829973 		0.11403963318887005  0.7008336457273425 		Uiso   ? 		C 		-0.21572
C 1.0  		0.22572388669053448 		0.36665410464166825  0.6988700262410968 		Uiso   ? 		C 		-0.21572
C 1.0  		0.9757160354249106 		0.6175020413290623  0.7006551348649566 		Uiso   ? 		C 		-0.21572
C 1.0  		0.14132278123233463 		0.2573252308272094  0.38736857137756836 		Uiso   ? 		C 		0.31253
C 1.0  		0.6381116135921111 		0.7623578920922053  0.3864760170656385 		Uiso   ? 		C 		0.31253
C 1.0  		0.3913855913573268 		0.0105992085924251  0.38736857137756836 		Uiso   ? 		C 		0.31253
C 1.0  		0.8868004522328999 		0.4965925507191759  0.38326282154269087 		Uiso   ? 		C 		0.31253
C 1.0  		0.889352113560706 		0.00039256328120092964  0.38558346275370864 		Uiso   ? 		C 		0.31253
C 1.0  		0.6017995100810251 		0.26733559449783306  0.41003945090058735 		Uiso   ? 		C 		0.31253
C 1.0  		0.38745995854531745 		0.5158281514980215  0.38754708223995427 		Uiso   ? 		C 		0.31253
C 1.0  		0.13621945857672252 		0.7521512467809811  0.38629750620325254 		Uiso   ? 		C 		0.31253
C 1.0  		0.10187017147164122 		0.27027981910684  0.720112818865028 		Uiso   ? 		C 		0.30827
C 1.0  		0.5951259343006093 		0.7631430186546071  0.7242185686999055 		Uiso   ? 		C 		0.30827
C 1.0  		0.3470259405816218 		0.019235600778845553  0.720112818865028 		Uiso   ? 		C 		0.30827
C 1.0  		0.8940628729351171 		0.5207351925130331  0.6963708741676932 		Uiso   ? 		C 		0.30827
C 1.0  		0.8457775893474029 		0.018843037497644623  0.7227904818008177 		Uiso   ? 		C 		0.30827
C 1.0  		0.5972850323472144 		0.2612508636392187  0.7231475035255897 		Uiso   ? 		C 		0.30827
C 1.0  		0.34977388355002825 		0.5191649393882294  0.7177921776540103 		Uiso   ? 		C 		0.30827
C 1.0  		0.09912222850323468 		0.769816594435023  0.7181491993787822 		Uiso   ? 		C 		0.30827
C 1.0  		0.9829784561271278 		0.3866748319829157  0.2806190756707546 		Uiso   ? 		C 		-0.07182
C 1.0  		0.4920780729853652 		0.8881744237171033  0.2831182277441583 		Uiso   ? 		C 		-0.07182
C 1.0  		0.24829627535958795 		0.13818227498272723  0.27633481497349116 		Uiso   ? 		C 		-0.07182
C 1.0  		0.747047924125369 		0.6355599522643051  0.2799050322212107 		Uiso   ? 		C 		-0.07182
C 1.0  		0.7333082092833365 		0.13661202185792348  0.2757992823863332 		Uiso   ? 		C 		-0.07182
C 1.0  		0.49600370579737457 		0.3462408140192199  0.2552705332119459 		Uiso   ? 		C 		-0.07182
C 1.0  		0.2484925570001884 		0.6367376421079078  0.27347864117531556 		Uiso   ? 		C 		-0.07182
C 1.0  		0.992792538157151 		0.8889595502795051  0.277227369285421 		Uiso   ? 		C 		-0.07182
C 1.0  		0.9908297217511464 		0.3927595628415301  0.5889073350113354 		Uiso   ? 		C 		-0.07254
C 1.0  		0.49796652220337917 		0.8887632686389045  0.5889073350113354 		Uiso   ? 		C 		-0.07254
C 1.0  		0.2516330632497959 		0.13818227498272723  0.5862296720755458 		Uiso   ? 		C 		-0.07254
C 1.0  		0.7366449971735445 		0.6361487971861065  0.5880147806994056 		Uiso   ? 		C 		-0.07254
C 1.0  		0.7433185729539602 		0.1421079077947365  0.5901569110480374 		Uiso   ? 		C 		-0.07254
C 1.0  		0.49423717103197035 		0.3870673952641166  0.5894428675984934 		Uiso   ? 		C 		-0.07254
C 1.0  		0.2557549777024056 		0.6337934174989008  0.584444563451686 		Uiso   ? 		C 		-0.07254
C 1.0  		0.9884743420639407 		0.8897446768419071  0.5865866938003178 		Uiso   ? 		C 		-0.07254
C 1.0  		0.8707053577036619 		0.27400917027824884  0.2720505542762277 		Uiso   ? 		C 		-0.14209
C 1.0  		0.3672429495634696 		0.7760976069342379  0.2720505542762277 		Uiso   ? 		C 		-0.14209
C 1.0  		0.11639501287607562 		0.023946360153256706  0.27347864117531556 		Uiso   ? 		C 		-0.14209
C 1.0  		0.6167169147666604 		0.5234831354814397  0.27472821721201734 		Uiso   ? 		C 		-0.14209
C 1.0  		0.6202499842974688 		0.0245352050750581  0.27401417376247345 		Uiso   ? 		C 		-0.14209
C 1.0  		0.3692057659694743 		0.27793480309025814  0.27633481497349116 		Uiso   ? 		C 		-0.14209
C 1.0  		0.11757270271967839 		0.5285864581370517  0.2745497063496314 		Uiso   ? 		C 		-0.14209
C 1.0  		0.8657983166886501 		0.7733496639658314  0.2752637497991753 		Uiso   ? 		C 		-0.14209
C 1.0  		0.8683499780164564 		0.2798976194962628  0.585337117763616 		Uiso   ? 		C 		-0.13903
C 1.0  		0.36802807612587146 		0.7755087620124365  0.58515860690123 		Uiso   ? 		C 		-0.13903
C 1.0  		0.1120768167828654 		0.022964951950254383  0.584623074314072 		Uiso   ? 		C 		-0.13903
C 1.0  		0.6273161233590856 		0.5305492745430563  0.5842660525893001 		Uiso   ? 		C 		-0.13903
C 1.0  		0.6151466616418567 		0.01668393945103951  0.5865866938003178 		Uiso   ? 		C 		-0.13903
C 1.0  		0.36665410464166825 		0.2692984109038377  0.5873007372498616 		Uiso   ? 		C 		-0.13903
C 1.0  		0.12012436404748443 		0.5252496702468439  0.5819454113782824 		Uiso   ? 		C 		-0.13903
C 1.0  		0.8681536963758558 		0.7686389045914201  0.5824809439654404 		Uiso   ? 		C 		-0.13903
C 1.0  		0.10344042459644494 		0.11914295584448213  0.36344811581784753 		Uiso   ? 		C 		0.30184
C 1.0  		0.5972850323472144 		0.6163243514854595  0.36023492029489995 		Uiso   ? 		C 		0.30184
C 1.0  		0.34839991206582493 		0.8685462596570568  0.360056409432514 		Uiso   ? 		C 		0.30184
C 1.0  		0.8498995038000127 		0.36567269643866596  0.352558953212303 		Uiso   ? 		C 		0.30184
C 1.0  		0.8510771936436154 		0.8675648514540545  0.3641621592673914 		Uiso   ? 		C 		0.30184
C 1.0  		0.5994441303938195 		0.11168425350166447  0.3547010835609347 		Uiso   ? 		C 		0.30184
C 1.0  		0.34938132026882734 		0.3695983292506752  0.36130598546921583 		Uiso   ? 		C 		0.30184
C 1.0  		0.09598172225362725 		0.6200537026568683  0.35916385512058413 		Uiso   ? 		C 		0.30184
C 1.0  		0.09990735506563657 		0.12090949060988632  0.6699512665345687 		Uiso   ? 		C 		0.30378
C 1.0  		0.6006218202374223 		0.6178946046102632  0.6717363751584284 		Uiso   ? 		C 		0.30378
C 1.0  		0.3489887569876264 		0.8650131901262484  0.6669165818740072 		Uiso   ? 		C 		0.30378
C 1.0  		0.8536288549714215 		0.3703834558130771  0.6706653099841126 		Uiso   ? 		C 		0.30378
C 1.0  		0.8534325733308209 		0.8712942026254633  0.6719148860208144 		Uiso   ? 		C 		0.30378
C 1.0  		0.6027809182840275 		0.11875039256328121  0.67477105981899 		Uiso   ? 		C 		0.30378
C 1.0  		0.3505590101124301 		0.3641024433138622  0.6695942448097967 		Uiso   ? 		C 		0.30378
C 1.0  		0.09931851014383515 		0.6186797311726651  0.6651314732501473 		Uiso   ? 		C 		0.30378
C 1.0  		0.1320975441241128 		0.34898875698762644  0.32185508488191505 		Uiso   ? 		C 		-0.15360
C 1.0  		0.6318306010928962 		0.8465627159098047  0.3170352915974937 		Uiso   ? 		C 		-0.15360
C 1.0  		0.3849082972175115 		0.09853338358143333  0.3093593245148968 		Uiso   ? 		C 		-0.15360
C 1.0  		0.8799305948118836 		0.596303624144212  0.3156072046984059 		Uiso   ? 		C 		-0.15360
C 1.0  		0.8852301991080962 		0.09617800389422776  0.3188204002213535 		Uiso   ? 		C 		-0.15360
C 1.0  		0.6335971358583005 		0.34525940581621756  0.3161427372855638 		Uiso   ? 		C 		-0.15360
C 1.0  		0.3790198479994975 		0.5990515671126186  0.3216765740195291 		Uiso   ? 		C 		-0.15360
C 1.0  		0.1340603605301174 		0.8491143772376106  0.3122154983130724 		Uiso   ? 		C 		-0.15360
C 1.0  		0.13621945857672255 		0.3476147855034232  0.6237169531766009 		Uiso   ? 		C 		-0.15420
C 1.0  		0.6337934174989008 		0.850488348721814  0.6331780288830576 		Uiso   ? 		C 		-0.15420
C 1.0  		0.38412317065510965 		0.09715941209723007  0.6329995180206716 		Uiso   ? 		C 		-0.15420
C 1.0  		0.8860153256704982 		0.6012106651592237  0.6231814205894429 		Uiso   ? 		C 		-0.15420
C 1.0  		0.8850339174674959 		0.10285157967464356  0.622110355415127 		Uiso   ? 		C 		-0.15420
C 1.0  		0.6369339237485083 		0.3468296589410213  0.6247880183509167 		Uiso   ? 		C 		-0.15420
C 1.0  		0.38530086049871237 		0.596303624144212  0.629429300772952 		Uiso   ? 		C 		-0.15420
C 1.0  		0.13327523396771557 		0.8514697569248163  0.6260375943876185 		Uiso   ? 		C 		-0.15420
C 1.0  		0.9963256076879593 		0.15329596130896303  0.3668398222031811 		Uiso   ? 		C 		0.65082
C 1.0  		0.4924706362665661 		0.6510662018717418  0.3646976918545494 		Uiso   ? 		C 		0.65082
C 1.0  		0.2445669241881791 		0.9021104201997363  0.3636266266802335 		Uiso   ? 		C 		0.65082
C 1.0  		0.7494033038125747 		0.39864801205954403  0.3636266266802335 		Uiso   ? 		C 		0.65082
C 1.0  		0.7456739526411658 		0.9009327303561334  0.3646976918545494 		Uiso   ? 		C 		0.65082
C 1.0  		0.49207807298536527 		0.15486621443376675  0.3670183330655671 		Uiso   ? 		C 		0.65082
C 1.0  		0.2420152628603731 		0.40748068588656494  0.3698745068637427 		Uiso   ? 		C 		0.65082
C 1.0  		0.9929888197977514 		0.6518513284341436  0.36398364840500547 		Uiso   ? 		C 		0.65082
C 1.0  		0.9961293260473589 		0.15349224294956348  0.6744140380942181 		Uiso   ? 		C 		0.65319
C 1.0  		0.49835908548458013 		0.6512624835123423  0.675306592406148 		Uiso   ? 		C 		0.65319
C 1.0  		0.24613717731298282 		0.902895546762138  0.6744140380942181 		Uiso   ? 		C 		0.65319
C 1.0  		0.7480293323283713 		0.40571415112116077  0.6774487227547796 		Uiso   ? 		C 		0.65319
C 1.0  		0.7497958670937755 		0.9025029834809372  0.6763776575804639 		Uiso   ? 		C 		0.65319
C 1.0  		0.4973776772815778 		0.1511368632623579  0.6767346793052358 		Uiso   ? 		C 		0.65319
C 1.0  		0.24495948746938004 		0.4053215878399598  0.6770917010300077 		Uiso   ? 		C 		0.65319
C 1.0  		0.9965218893285598 		0.6559732428867534  0.6774487227547796 		Uiso   ? 		C 		0.65319
C 1.0  		0.9910260033917468 		0.13896740154512907  0.38915368000142814 		Uiso   ? 		C 		-0.00490
C 1.0  		0.48579706048615034 		0.6381116135921111  0.3879041039647263 		Uiso   ? 		C 		-0.00490
C 1.0  		0.2373045034859619 		0.8883707053577037  0.38558346275370864 		Uiso   ? 		C 		-0.00490
C 1.0  		0.7433185729539602 		0.3862822687017147  0.3866545279280244 		Uiso   ? 		C 		-0.00490
C 1.0  		0.7419446014697569 		0.8868004522328999  0.3871900605151824 		Uiso   ? 		C 		-0.00490
C 1.0  		0.48363796243954527 		0.14191162615413605  0.3893321908638141 		Uiso   ? 		C 		-0.00490
C 1.0  		0.23396771559575402 		0.39413353432573334  0.3921883646619897 		Uiso   ? 		C 		-0.00490
C 1.0  		0.9865115256579361 		0.6398781483575152  0.38754708223995427 		Uiso   ? 		C 		-0.00490
C 1.0  		0.9874929338609384 		0.13857483826392814  0.6958353415805353 		Uiso   ? 		C 		-0.00901
C 1.0  		0.4893301300169587 		0.6387004585139124  0.697798961066781 		Uiso   ? 		C 		-0.00901
C 1.0  		0.2373045034859619 		0.8911186483261102  0.696906406754851 		Uiso   ? 		C 		-0.00901
C 1.0  		0.7415520381885561 		0.3915818729979273  0.6997625805530266 		Uiso   ? 		C 		-0.00901
C 1.0  		0.7421408831103574 		0.8889595502795051  0.6988700262410968 		Uiso   ? 		C 		-0.00901
C 1.0  		0.48854500345455687 		0.13935996482633  0.6999410914154126 		Uiso   ? 		C 		-0.00901
C 1.0  		0.23671565856416052 		0.39197443627912826  0.6986915153787109 		Uiso   ? 		C 		-0.00901
C 1.0  		0.9882780604233403 		0.643607499528924  0.7001196022777987 		Uiso   ? 		C 		-0.00901
C 1.0  		0.09794453865963193 		0.25850292067081215  0.3666613113407951 		Uiso   ? 		C 		0.65640
C 1.0  		0.5970887507066139 		0.7529363733433829  0.3636266266802335 		Uiso   ? 		C 		0.65640
C 1.0  		0.3474185038628227 		0.006281012499214874  0.3663042896160232 		Uiso   ? 		C 		0.65640
C 1.0  		0.8451887444256014 		0.5054252245461969  0.36309109409307555 		Uiso   ? 		C 		0.65640
C 1.0  		0.8457775893474029 		0.006869857421016269  0.36523322444170725 		Uiso   ? 		C 		0.65640
C 1.0  		0.5980701589096163 		0.2563438226242071  0.367553865652725 		Uiso   ? 		C 		0.65640
C 1.0  		0.34349287105081333 		0.5103322655612085  0.367732376515111 		Uiso   ? 		C 		0.65640
C 1.0  		0.09382262420702213 		0.7588248225613969  0.3648762027169353 		Uiso   ? 		C 		0.65640
C 1.0  		0.10108504490923936 		0.25968061051441493  0.675485103268534 		Uiso   ? 		C 		0.65881
C 1.0  		0.5961073425036116 		0.7582359776395955  0.6794123422410254 		Uiso   ? 		C 		0.65881
C 1.0  		0.3456519690974185 		0.008243828905219523  0.6770917010300077 		Uiso   ? 		C 		0.65881
C 1.0  		0.8544139815338233 		0.5089582940770052  0.6731644620575162 		Uiso   ? 		C 		0.65881
C 1.0  		0.8487218139564098 		0.010010363670623704  0.6774487227547796 		Uiso   ? 		C 		0.65881
C 1.0  		0.5976775956284153 		0.25752151246780985  0.6778057444795517 		Uiso   ? 		C 		0.65881
C 1.0  		0.3491850386282268 		0.5064066327491992  0.674592548956604 		Uiso   ? 		C 		0.65881
C 1.0  		0.10088876326863887 		0.7596099491237989  0.6742355272318321 		Uiso   ? 		C 		0.65881
C 1.0  		0.11462847811067142 		0.2638025249670247  0.38736857137756836 		Uiso   ? 		C 		-0.16489
C 1.0  		0.6112210288298474 		0.7594136674831984  0.38611899534086647 		Uiso   ? 		C 		-0.16489
C 1.0  		0.36331731675146034 		0.012365743357829282  0.38772559310234034 		Uiso   ? 		C 		-0.16489
C 1.0  		0.8640317819232461 		0.5117062370454117  0.38254877809314697 		Uiso   ? 		C 		-0.16489
C 1.0  		0.8642280635638465 		0.010402926951824635  0.38576197361609454 		Uiso   ? 		C 		-0.16489
C 1.0  		0.6139689717982539 		0.26183970856102007  0.3886181474142702 		Uiso   ? 		C 		-0.16489
C 1.0  		0.35880283901764964 		0.5179872495446266  0.38879665827665616 		Uiso   ? 		C 		-0.16489
C 1.0  		0.11089912693926256 		0.7625541737328058  0.38558346275370864 		Uiso   ? 		C 		-0.16489
C 1.0  		0.11619873123547515 		0.26792443941963445  0.6972634284796231 		Uiso   ? 		C 		-0.16715
C 1.0  		0.6078842409396396 		0.7672649331072169  0.7026187543512024 		Uiso   ? 		C 		-0.16715
C 1.0  		0.3601768105018529 		0.017272784372840903  0.6983344936539388 		Uiso   ? 		C 		-0.16715
C 1.0  		0.8671722881728535 		0.5195575026694303  0.6951212981309913 		Uiso   ? 		C 		-0.16715
C 1.0  		0.8606949940330382 		0.017665347654041832  0.7002981131401846 		Uiso   ? 		C 		-0.16715
C 1.0  		0.6094544940644432 		0.267728157779034  0.7002981131401846 		Uiso   ? 		C 		-0.16715
C 1.0  		0.36312103511085986 		0.5158281514980215  0.6956568307181492 		Uiso   ? 		C 		-0.16715
C 1.0  		0.11246938006406629 		0.7702091577162239  0.6961923633053072 		Uiso   ? 		C 		-0.16715
C 1.0  		0.018843037497644616 		0.1354343320143207  0.232242631964155 		Uiso   ? 		C 		-0.21666
C 1.0  		0.5113136737642108 		0.6408595565605176  0.22902943644120743 		Uiso   ? 		C 		-0.21666
C 1.0  		0.2840195339488725 		0.8789491866088813  0.2363483817990325 		Uiso   ? 		C 		-0.21666
C 1.0  		0.7662835249042146 		0.38942277495132216  0.23045752334029526 		Uiso   ? 		C 		-0.21666
C 1.0  		0.7653021167012123 		0.8883707053577037  0.23135007765222515 		Uiso   ? 		C 		-0.21666
C 1.0  		0.5179872495446266 		0.13955624646693046  0.23277816455131298 		Uiso   ? 		C 		-0.21666
C 1.0  		0.2651764964512279 		0.3911893097167264  0.23599136007426055 		Uiso   ? 		C 		-0.21666
C 1.0  		0.016095094529238078 		0.6410558382011181  0.2295649690283654 		Uiso   ? 		C 		-0.21666
C 1.0  		0.020609572263048798 		0.1375934300609258  0.5432085542405256 		Uiso   ? 		C 		-0.21731
C 1.0  		0.5278013315746499 		0.6337934174989008  0.5471357932130171 		Uiso   ? 		C 		-0.21731
C 1.0  		0.27479429684065065 		0.8848376358268953  0.5442796194148414 		Uiso   ? 		C 		-0.21731
C 1.0  		0.7788455499026443 		0.38392688901450917  0.5466002606258591 		Uiso   ? 		C 		-0.21731
C 1.0  		0.7757050436530369 		0.8862116073110985  0.5442796194148414 		Uiso   ? 		C 		-0.21731
C 1.0  		0.5287827397776522 		0.1360231769361221  0.5442796194148414 		Uiso   ? 		C 		-0.21731
C 1.0  		0.27577570504365306 		0.3853008604987124  0.5441011085524554 		Uiso   ? 		C 		-0.21731
C 1.0  		0.029442246090069683 		0.6241756171094781  0.5523126082222103 		Uiso   ? 		C 		-0.21731
C 1.0  		0.1136470699076691 		0.23965988317316755  0.23277816455131298 		Uiso   ? 		C 		0.31282
C 1.0  		0.6163243514854595 		0.7501884303749765  0.23117156678983916 		Uiso   ? 		C 		0.31282
C 1.0  		0.3656726964386659 		0.9984847057345644  0.23188561023938306 		Uiso   ? 		C 		0.31282
C 1.0  		0.8626578104390428 		0.4975739589221783  0.22831539299166353 		Uiso   ? 		C 		0.31282
C 1.0  		0.8630503737202438 		0.000981408203002324  0.22813688212927757 		Uiso   ? 		C 		0.31282
C 1.0  		0.6163243514854595 		0.24397807926637777  0.23438476231278674 		Uiso   ? 		C 		0.31282
C 1.0  		0.36449500659506306 		0.4958074241567741  0.2340277405880148 		Uiso   ? 		C 		0.31282
C 1.0  		0.11266566170466674 		0.7439074178757616  0.2302790124779093 		Uiso   ? 		C 		0.31282
C 1.0  		0.15565134099616856 		0.22788298473713964  0.5665934772130884 		Uiso   ? 		C 		0.31110
C 1.0  		0.6104359022674455 		0.7439074178757616  0.5439225976900695 		Uiso   ? 		C 		0.31110
C 1.0  		0.36488756987626403 		0.9971107342503612  0.5423159999285957 		Uiso   ? 		C 		0.31110
C 1.0  		0.8973996608253251 		0.4736275987689215  0.5587389992681054 		Uiso   ? 		C 		0.31110
C 1.0  		0.902502983480937 		0.9776788518309152  0.5612381513415092 		Uiso   ? 		C 		0.31110
C 1.0  		0.6496922303875385 		0.22376107028452985  0.562130705653439 		Uiso   ? 		C 		0.31110
C 1.0  		0.4049290245587589 		0.48265655423654297  0.5633802816901409 		Uiso   ? 		C 		0.31110
C 1.0  		0.1542773695119653 		0.7285974499089254  0.5649868794516146 		Uiso   ? 		C 		0.31110
C 1.0  		0.007066139061616711 		0.35566233276804227  0.43449543904746607 		Uiso   ? 		C 		-0.07381
C 1.0  		0.5064066327491992 		0.8591247409082344  0.43538799335939593 		Uiso   ? 		C 		-0.07381
C 1.0  		0.2571289491866089 		0.11227309842346586  0.4300326674878166 		Uiso   ? 		C 		-0.07381
C 1.0  		0.7582359776395955 		0.6125950003140507  0.43181777611167643 		Uiso   ? 		C 		-0.07381
C 1.0  		0.7615727655298035 		0.10854374725205705  0.43395990646030813 		Uiso   ? 		C 		-0.07381
C 1.0  		0.4924706362665662 		0.36724294956346965  0.43253181956122033 		Uiso   ? 		C 		-0.07381
C 1.0  		0.2545772878588028 		0.6127912819546512  0.43038968921258863 		Uiso   ? 		C 		-0.07381
C 1.0  		0.014132278123233413 		0.8624615287984424  0.43092522179974657 		Uiso   ? 		C 		-0.07381
C 1.0  		0.014917404685635302 		0.3601768105018529  0.7445688070119068 		Uiso   ? 		C 		-0.07662
C 1.0  		0.5109211104830099 		0.8650131901262484  0.7438547635623628 		Uiso   ? 		C 		-0.07662
C 1.0  		0.25006281012499215 		0.11325450662646819  0.7429622092504329 		Uiso   ? 		C 		-0.07662
C 1.0  		0.7607876389674015 		0.6171094780478614  0.7406415680394153 		Uiso   ? 		C 		-0.07662
C 1.0  		0.7497958670937755 		0.11639501287607562  0.7434977418375909 		Uiso   ? 		C 		-0.07662
C 1.0  		0.5113136737642108 		0.36056937378305387  0.7456398721862225 		Uiso   ? 		C 		-0.07662
C 1.0  		0.25320331637459953 		0.6131838452358521  0.7393919920027134 		Uiso   ? 		C 		-0.07662
C 1.0  		0.008636392186420398 		0.8654057534074493  0.7417126332137312 		Uiso   ? 		C 		-0.07662
C 1.0  		0.8495069405188117 		0.24731486715658565  0.40914689658865744 		Uiso   ? 		C 		-0.13465
C 1.0  		0.35016644683122916 		0.7295788581119277  0.41200307038683304 		Uiso   ? 		C 		-0.13465
C 1.0  		0.1006924816280384 		0.9845487092519315  0.4068262553776397 		Uiso   ? 		C 		-0.13465
C 1.0  		0.5988552854720182 		0.49031153821996115  0.4130741355611489 		Uiso   ? 		C 		-0.13465
C 1.0  		0.5986590038314176 		0.9908297217511464  0.4089683857262715 		Uiso   ? 		C 		-0.13465
C 1.0  		0.34781106714402366 		0.2414264179385717  0.41057498348774524 		Uiso   ? 		C 		-0.13465
C 1.0  		0.0985333835814333 		0.4918817913447648  0.40914689658865744 		Uiso   ? 		C 		-0.13465
C 1.0  		0.8467589975504052 		0.7417483198291565  0.40593370106570986 		Uiso   ? 		C 		-0.13465
C 1.0  		0.8491143772376106 		0.24299667106337544  0.7174351559292383 		Uiso   ? 		C 		-0.13842
C 1.0  		0.3485961937064255 		0.7346821807675398  0.71957728627787 		Uiso   ? 		C 		-0.13842
C 1.0  		0.1368083034985239 		0.9925962565165506  0.7422481658008891 		Uiso   ? 		C 		-0.13842
C 1.0  		0.6031734815652283 		0.4859933421267509  0.7215409057641158 		Uiso   ? 		C 		-0.13842
C 1.0  		0.6021920733622259 		0.9833710194083286  0.7186847319659402 		Uiso   ? 		C 		-0.13842
C 1.0  		0.39236699956032917 		0.23455656051755547  0.7451043395990647 		Uiso   ? 		C 		-0.13842
C 1.0  		0.0985333835814333 		0.48854500345455687  0.7181491993787822 		Uiso   ? 		C 		-0.13842
C 1.0  		0.8473478424722066 		0.7523475284215816  0.7135079169567469 		Uiso   ? 		C 		-0.13842
C 1.0  		0.9070174612147479 		0.13013472771810816  0.19546939431264393 		Uiso   ? 		C 		-0.15093
C 1.0  		0.40276992651215376 		0.6294752214056906  0.19921812242274944 		Uiso   ? 		C 		-0.15093
C 1.0  		0.15741787576157273 		0.8777714967652787  0.20064620932183727 		Uiso   ? 		C 		-0.15093
C 1.0  		0.6549918346837511 		0.38078638276490173  0.19546939431264393 		Uiso   ? 		C 		-0.15093
C 1.0  		0.6549918346837511 		0.8805194397336851  0.202431317945697 		Uiso   ? 		C 		-0.15093
C 1.0  		0.4043401796369575 		0.1311161359211105  0.19493386172548602 		Uiso   ? 		C 		-0.15093
C 1.0  		0.15231455310596068 		0.37901984799949756  0.2017172744961531 		Uiso   ? 		C 		-0.15093
C 1.0  		0.9026992651215376 		0.6308491928898938  0.1974330137988897 		Uiso   ? 		C 		-0.15093
C 1.0  		0.906232334652346 		0.1317049808429119  0.5035791427908389 		Uiso   ? 		C 		-0.15296
C 1.0  		0.406695559324163 		0.6347748257019031  0.5051857405523127 		Uiso   ? 		C 		-0.15296
C 1.0  		0.15211827146536017 		0.8818934112178884  0.5051857405523127 		Uiso   ? 		C 		-0.15296
C 1.0  		0.6508699202311413 		0.3827491991709064  0.4998304146807333 		Uiso   ? 		C 		-0.15296
C 1.0  		0.65028107530934 		0.8840525092644934  0.5035791427908389 		Uiso   ? 		C 		-0.15296
C 1.0  		0.4063029960429621 		0.13464920545191886  0.5060782948642425 		Uiso   ? 		C 		-0.15296
C 1.0  		0.15466993279316624 		0.3870673952641166  0.5089344686624181 		Uiso   ? 		C 		-0.15296
C 1.0  		0.9001476037937317 		0.6290826581244897  0.5003659472678913 		Uiso   ? 		C 		-0.15296
C 1.0  		0.9030918284027386 		0.13464920545191886  0.802941859012121 		Uiso   ? 		C 		-0.15249
C 1.0  		0.39982570190314676 		0.630064066327492  0.8057980328102966 		Uiso   ? 		C 		-0.15249
C 1.0  		0.15329596130896297 		0.8844450725456945  0.8084756957460861 		Uiso   ? 		C 		-0.15249
C 1.0  		0.6544029897619497 		0.3853008604987124  0.8166871954158411 		Uiso   ? 		C 		-0.15249
C 1.0  		0.6516550467935431 		0.8871930155141008  0.8152591085167533 		Uiso   ? 		C 		-0.15249
C 1.0  		0.40551786948056023 		0.13484548709251934  0.8157946411039113 		Uiso   ? 		C 		-0.15249
C 1.0  		0.1560439042773695 		0.38392688901450917  0.8120459129938058 		Uiso   ? 		C 		-0.15249
C 1.0  		0.9019141385591357 		0.6328120092958985  0.817758260590157 		Uiso   ? 		C 		-0.15249
C 1.0  		0.12110577225048677 		0.14760379373154953  0.16976383012906335 		Uiso   ? 		C 		0.31257
C 1.0  		0.6184834495320646 		0.6491033854657371  0.17065638444099324 		Uiso   ? 		C 		0.31257
C 1.0  		0.37450537026568675 		0.8979885057471265  0.14762848319320232 		Uiso   ? 		C 		0.31257
C 1.0  		0.8750235537968721 		0.39609635073173793  0.1431657116335529 		Uiso   ? 		C 		0.31257
C 1.0  		0.876201243640475 		0.897792224106526  0.142451668184009 		Uiso   ? 		C 		0.31257
C 1.0  		0.6214276741410716 		0.14937032849695372  0.16904978667951945 		Uiso   ? 		C 		0.31257
C 1.0  		0.3701871741724766 		0.39962942026254633  0.14798550491797427 		Uiso   ? 		C 		0.31257
C 1.0  		0.12051692732868535 		0.6496922303875385  0.14869954836751817 		Uiso   ? 		C 		0.31257
C 1.0  		0.1214983355316877 		0.15309967966836255  0.4651993073778539 		Uiso   ? 		C 		0.30445
C 1.0  		0.6196611393756674 		0.6516550467935431  0.46216462271729236 		Uiso   ? 		C 		0.30445
C 1.0  		0.3668503862822687 		0.902895546762138  0.4632356878916083 		Uiso   ? 		C 		0.30445
C 1.0  		0.8705090760630614 		0.39962942026254633  0.46216462271729236 		Uiso   ? 		C 		0.30445
C 1.0  		0.86992023114126 		0.8995587588719303  0.45895142719434484 		Uiso   ? 		C 		0.30445
C 1.0  		0.6231942089064757 		0.15251083474656116  0.45680929684571314 		Uiso   ? 		C 		0.30445
C 1.0  		0.37097230073487847 		0.4002182651843478  0.45859440546957286 		Uiso   ? 		C 		0.30445
C 1.0  		0.12228346209408954 		0.6506736385905408  0.4598439815062747 		Uiso   ? 		C 		0.30445
C 1.0  		0.12287230701589096 		0.1523145531059607  0.7613488280761884 		Uiso   ? 		C 		0.30438
C 1.0  		0.6192685760944664 		0.6544029897619497  0.7686677734340135 		Uiso   ? 		C 		0.30438
C 1.0  		0.36802807612587146 		0.9032881100433391  0.7649190453239081 		Uiso   ? 		C 		0.30438
C 1.0  		0.872864455750267 		0.4061067144023617  0.7624198932505043 		Uiso   ? 		C 		0.30438
C 1.0  		0.867761133094655 		0.9032881100433391  0.764740534461522 		Uiso   ? 		C 		0.30438
C 1.0  		0.621623955781672 		0.15525877771496768  0.7658115996358379 		Uiso   ? 		C 		0.30438
C 1.0  		0.3735239620626845 		0.4004145468249482  0.757957121690855 		Uiso   ? 		C 		0.30438
C 1.0  		0.1197318007662835 		0.6575434960115571  0.7627769149752762 		Uiso   ? 		C 		0.30438
C 1.0  		0.016683939451039503 		0.09185980780101753  0.21278494796408362 		Uiso   ? 		C 		0.65132
C 1.0  		0.5103322655612085 		0.5961073425036116  0.21046430675306593 		Uiso   ? 		C 		0.65132
C 1.0  		0.2630173984046228 		0.8410668299729918  0.2129634588264696 		Uiso   ? 		C 		0.65132
C 1.0  		0.7651058350606118 		0.34604453237861943  0.2092147307163641 		Uiso   ? 		C 		0.65132
C 1.0  		0.7631430186546071 		0.8451887444256014  0.21028579589067994 		Uiso   ? 		C 		0.65132
C 1.0  		0.513472771810816 		0.09500031405062496  0.21332048055124156 		Uiso   ? 		C 		0.65132
C 1.0  		0.26183970856102007 		0.3468296589410213  0.21439154572555744 		Uiso   ? 		C 		0.65132
C 1.0  		0.009028955467621344 		0.5978738772690158  0.20796515467966228 		Uiso   ? 		C 		0.65132
C 1.0  		0.008243828905219517 		0.09519659569122543  0.5216087398918224 		Uiso   ? 		C 		0.65363
C 1.0  		0.5054252245461969 		0.5968924690660135  0.5223227833413664 		Uiso   ? 		C 		0.65363
C 1.0  		0.25438100621820237 		0.8465627159098047  0.5212517181670505 		Uiso   ? 		C 		0.65363
C 1.0  		0.7578434143583946 		0.3468296589410213  0.5232153376532962 		Uiso   ? 		C 		0.65363
C 1.0  		0.7568620061553922 		0.8473478424722066  0.5214302290294365 		Uiso   ? 		C 		0.65363
C 1.0  		0.5087620124364048 		0.09912222850323472  0.5203591638551206 		Uiso   ? 		C 		0.65363
C 1.0  		0.25752151246780985 		0.3466333773004209  0.5219657616165944 		Uiso   ? 		C 		0.65363
C 1.0  		0.004710759374411119 		0.5925742729728033  0.5242864028276121 		Uiso   ? 		C 		0.65363
C 1.0  		0.024535205075058093 		0.1087400288926575  0.2333136971384709 		Uiso   ? 		C 		-0.00609
C 1.0  		0.5191649393882294 		0.6137726901576535  0.22992199075313735 		Uiso   ? 		C 		-0.00609
C 1.0  		0.26929841090383766 		0.8548065448150243  0.23599136007426055 		Uiso   ? 		C 		-0.00609
C 1.0  		0.7721719741222286 		0.36233590854845804  0.23045752334029526 		Uiso   ? 		C 		-0.00609
C 1.0  		0.7711905659192262 		0.8612838389548395  0.2308145450650672 		Uiso   ? 		C 		-0.00609
C 1.0  		0.5207351925130331 		0.1120768167828654  0.23384922972562883 		Uiso   ? 		C 		-0.00609
C 1.0  		0.26812072106023493 		0.36292475347025943  0.2354558274871026 		Uiso   ? 		C 		-0.00609
C 1.0  		0.017076502732240397 		0.6133801268764525  0.2293864581659794 		Uiso   ? 		C 		-0.00609
C 1.0  		0.011384335154826952 		0.11050656365806168  0.5437440868276835 		Uiso   ? 		C 		-0.00365
C 1.0  		0.5124913636078137 		0.6098470573456442  0.5453506845891574 		Uiso   ? 		C 		-0.00365
C 1.0  		0.2590917655926135 		0.861872683876641  0.5432085542405256 		Uiso   ? 		C 		-0.00365
C 1.0  		0.7641244268576095 		0.3601768105018529  0.5457077063139292 		Uiso   ? 		C 		-0.00365
C 1.0  		0.7635355819358082 		0.861872683876641  0.5435655759652975 		Uiso   ? 		C 		-0.00365
C 1.0  		0.5164169964198229 		0.11168425350166447  0.5432085542405256 		Uiso   ? 		C 		-0.00365
C 1.0  		0.26242855348282146 		0.3613545003454557  0.5442796194148414 		Uiso   ? 		C 		-0.00365
C 1.0  		0.007262420702217161 		0.6074916776584386  0.5469572823506311 		Uiso   ? 		C 		-0.00365
C 1.0  		0.15702531248037183 		0.23965988317316755  0.21189239365215376 		Uiso   ? 		C 		0.65416
C 1.0  		0.6589174674957604 		0.7413557565479556  0.21171388278976777 		Uiso   ? 		C 		0.65416
C 1.0  		0.4078732491677658 		0.9906334401105458  0.21046430675306593 		Uiso   ? 		C 		0.65416
C 1.0  		0.9052509264493437 		0.4895264116575593  0.20814366554204825 		Uiso   ? 		C 		0.65416
C 1.0  		0.905839771371145 		0.9904371584699455  0.20867919812920618 		Uiso   ? 		C 		0.65416
C 1.0  		0.6614691288235665 		0.2386784749701652  0.21457005658794337 		Uiso   ? 		C 		0.65416
C 1.0  		0.4070881226053639 		0.488152440173356  0.21439154572555744 		Uiso   ? 		C 		0.65416
C 1.0  		0.15741787576157273 		0.7382152502983481  0.21117835020260986 		Uiso   ? 		C 		0.65416
C 1.0  		0.15800672068337415 		0.2416226995791722  0.5235723593780681 		Uiso   ? 		C 		0.65348
C 1.0  		0.6532252999183469 		0.7435148545945607  0.5216087398918224 		Uiso   ? 		C 		0.65348
C 1.0  		0.4078732491677658 		0.9925962565165506  0.5217872507542084 		Uiso   ? 		C 		0.65348
C 1.0  		0.9023067018403368 		0.49227435462596575  0.5166104357450151 		Uiso   ? 		C 		0.65348
C 1.0  		0.905839771371145 		0.9937739463601533  0.5189310769560328 		Uiso   ? 		C 		0.65348
C 1.0  		0.6540104264807487 		0.2426041077821745  0.5214302290294365 		Uiso   ? 		C 		0.65348
C 1.0  		0.4068918409647635 		0.4918817913447648  0.5201806529927346 		Uiso   ? 		C 		0.65348
C 1.0  		0.15663274919917086 		0.7409631932667546  0.5210732073046646 		Uiso   ? 		C 		0.65348
C 1.0  		0.13955624646693043 		0.23180861754914894  0.23242114282654103 		Uiso   ? 		C 		-0.17263
C 1.0  		0.640663274919917 		0.7372338420953458  0.23135007765222515 		Uiso   ? 		C 		-0.17263
C 1.0  		0.3892264933107217 		0.9841561459707305  0.2295649690283654 		Uiso   ? 		C 		-0.17263
C 1.0  		0.8862116073110985 		0.48363796243954527  0.22777986040450562 		Uiso   ? 		C 		-0.17263
C 1.0  		0.8854264807486967 		0.9849412725331324  0.22688730609257574 		Uiso   ? 		C 		-0.17263
C 1.0  		0.6426260913259217 		0.23298630739275172  0.2340277405880148 		Uiso   ? 		C 		-0.17263
C 1.0  		0.3892264933107217 		0.48246027259594254  0.23438476231278674 		Uiso   ? 		C 		-0.17263
C 1.0  		0.13857483826392808 		0.7329156460021355  0.23063603420268125 		Uiso   ? 		C 		-0.17263
C 1.0  		0.1426967527165379 		0.23553796872055777  0.5448151520019994 		Uiso   ? 		C 		-0.16582
C 1.0  		0.6379153319515106 		0.7378226870171471  0.5430300433781395 		Uiso   ? 		C 		-0.16582
C 1.0  		0.39040418315432446 		0.9859226807361346  0.5417804673414378 		Uiso   ? 		C 		-0.16582
C 1.0  		0.8860153256704982 		0.4861896237673513  0.5378532283689462 		Uiso   ? 		C 		-0.16582
C 1.0  		0.889744676841907 		0.9890631869857421  0.5408879130295079 		Uiso   ? 		C 		-0.16582
C 1.0  		0.6375227686703098 		0.2359305320017587  0.5426730216533676 		Uiso   ? 		C 		-0.16582
C 1.0  		0.39138559135732676 		0.4859933421267509  0.5412449347542798 		Uiso   ? 		C 		-0.16582
C 1.0  		0.14151906287293506 		0.7350747440487407  0.5432085542405256 		Uiso   ? 		C 		-0.16582
C 1.0  		0.02590917655926133 		0.379216129640098  0.39308091897391956 		Uiso   ? 		C 		-0.22077
C 1.0  		0.5297641479806545 		0.8793417498900824  0.39361645156107755 		Uiso   ? 		C 		-0.22077
C 1.0  		0.2777385214496577 		0.13739714842032535  0.3882611256894982 		Uiso   ? 		C 		-0.22077
C 1.0  		0.7653021167012123 		0.6371302053891088  0.3871900605151824 		Uiso   ? 		C 		-0.22077
C 1.0  		0.7731533823252309 		0.13582689529552164  0.3907602777629019 		Uiso   ? 		C 		-0.22077
C 1.0  		0.5287827397776522 		0.3776458765152943  0.3948660275977794 		Uiso   ? 		C 		-0.22077
C 1.0  		0.2696909741850386 		0.635952515545506  0.3866545279280244 		Uiso   ? 		C 		-0.22077
C 1.0  		0.012169461717228764 		0.8907260850449094  0.38879665827665616 		Uiso   ? 		C 		-0.22077
C 1.0  		0.030619935933672484 		0.3825529175303059  0.7013691783145004 		Uiso   ? 		C 		-0.21945
C 1.0  		0.5223054456378369 		0.8873892971547014  0.6985130045163248 		Uiso   ? 		C 		-0.21945
C 1.0  		0.2834306890270712 		0.12562024998429747  0.705117906424606 		Uiso   ? 		C 		-0.21945
C 1.0  		0.7717794108410276 		0.6398781483575152  0.6954783198557632 		Uiso   ? 		C 		-0.21945
C 1.0  		0.7817897745116513 		0.12954588279630677  0.7031542869383602 		Uiso   ? 		C 		-0.21945
C 1.0  		0.5258385151686452 		0.3823566358897054  0.7011906674521144 		Uiso   ? 		C 		-0.21945
C 1.0  		0.27852364801205953 		0.6334008542176999  0.6981559827915529 		Uiso   ? 		C 		-0.21945
C 1.0  		0.02708686640286409 		0.8873892971547014  0.6988700262410968 		Uiso   ? 		C 		-0.21945
C 1.0  		0.898577350668928 		0.22120940895672384  0.40736178796479766 		Uiso   ? 		C 		0.31035
C 1.0  		0.404143897996357 		0.7374301237359463  0.40932540745104345 		Uiso   ? 		C 		0.31035
C 1.0  		0.15545505935556808 		0.9829784561271278  0.40861136400149956 		Uiso   ? 		C 		0.31035
C 1.0  		0.6518513284341436 		0.4728424722065197  0.412538602973991 		Uiso   ? 		C 		0.31035
C 1.0  		0.6544029897619495 		0.9800342315181209  0.4102179617629733 		Uiso   ? 		C 		0.31035
C 1.0  		0.40100339174674965 		0.22729413981533822  0.41057498348774524 		Uiso   ? 		C 		0.31035
C 1.0  		0.15251083474656113 		0.47774951322153136  0.4096824291758154 		Uiso   ? 		C 		0.31035
C 1.0  		0.8993624772313297 		0.7234941272533133  0.40736178796479766 		Uiso   ? 		C 		0.31035
C 1.0  		0.9038769549651405 		0.23298630739275172  0.71957728627787 		Uiso   ? 		C 		0.31186
C 1.0  		0.4039476163557565 		0.7337007725645375  0.7206483514521859 		Uiso   ? 		C 		0.31186
C 1.0  		0.11266566170466673 		0.9800342315181209  0.6999410914154126 		Uiso   ? 		C 		0.31186
C 1.0  		0.658328622573959 		0.48363796243954527  0.7231475035255897 		Uiso   ? 		C 		0.31186
C 1.0  		0.6567583694491551 		0.9843524276113309  0.7217194166265017 		Uiso   ? 		C 		0.31186
C 1.0  		0.3646912882356636 		0.22592016833113499  0.7006551348649566 		Uiso   ? 		C 		0.31186
C 1.0  		0.15290339802776207 		0.47853463978393324  0.7181491993787822 		Uiso   ? 		C 		0.31186
C 1.0  		0.8979885057471265 		0.7291862948307267  0.7136864278191328 		Uiso   ? 		C 		0.31186
C 1.0  		0.029049682808868785 		0.11266566170466678  0.277227369285421 		Uiso   ? 		C 		-0.07136
C 1.0  		0.5274087682934488 		0.6175020413290623  0.27294310858815757 		Uiso   ? 		C 		-0.07136
C 1.0  		0.25928804723321397 		0.861872683876641  0.277584391010193 		Uiso   ? 		C 		-0.07136
C 1.0  		0.775312480371836 		0.36155078198605617  0.2743711954872454 		Uiso   ? 		C 		-0.07136
C 1.0  		0.7706017209974249 		0.8603024307518372  0.27490672807440336 		Uiso   ? 		C 		-0.07136
C 1.0  		0.5207351925130331 		0.11443219647007097  0.277584391010193 		Uiso   ? 		C 		-0.07136
C 1.0  		0.2720463538722442 		0.36253219018905847  0.2793694996340527 		Uiso   ? 		C 		-0.07136
C 1.0  		0.02080585390364923 		0.6139689717982539  0.27294310858815757 		Uiso   ? 		C 		-0.07136
C 1.0  		0.004710759374411149 		0.11364706990766911  0.5874792481122476 		Uiso   ? 		C 		-0.07024
C 1.0  		0.5028735632183908 		0.6137726901576535  0.5878362698370196 		Uiso   ? 		C 		-0.07024
C 1.0  		0.25202562653099675 		0.8657983166886501  0.5867652046627038 		Uiso   ? 		C 		-0.07024
C 1.0  		0.7545066264681867 		0.3646912882356636  0.5878362698370196 		Uiso   ? 		C 		-0.07024
C 1.0  		0.7594136674831984 		0.8608912756736387  0.5865866938003178 		Uiso   ? 		C 		-0.07024
C 1.0  		0.510528547201809 		0.11325450662646819  0.5869437155250897 		Uiso   ? 		C 		-0.07024
C 1.0  		0.25477356949940333 		0.3646912882356636  0.5871222263874757 		Uiso   ? 		C 		-0.07024
C 1.0  		0.9912222850323472 		0.6155392249230577  0.5876577589746336 		Uiso   ? 		C 		-0.07024
C 1.0  		0.13916368318572953 		0.2280792663777401  0.27562077152394726 		Uiso   ? 		C 		-0.13860
C 1.0  		0.6332045725770995 		0.7236904088939137  0.2731216194505436 		Uiso   ? 		C 		-0.13860
C 1.0  		0.38608598706111424 		0.9715941209723008  0.27294310858815757 		Uiso   ? 		C 		-0.13860
C 1.0  		0.8807157213742856 		0.47127221908171596  0.2691943804780521 		Uiso   ? 		C 		-0.13860
C 1.0  		0.8783603416870799 		0.9700238678474971  0.26865884789089417 		Uiso   ? 		C 		-0.13860
C 1.0  		0.6385041768733121 		0.22356478864392942  0.2765133258358771 		Uiso   ? 		C 		-0.13860
C 1.0  		0.3854971421393128 		0.47519785189372526  0.27740588014780704 		Uiso   ? 		C 		-0.13860
C 1.0  		0.13307895232711509 		0.72212015576911  0.2731216194505436 		Uiso   ? 		C 		-0.13860
C 1.0  		0.10128132654983983 		0.23710822184536148  0.5649868794516146 		Uiso   ? 		C 		-0.13950
C 1.0  		0.6388967401545129 		0.7323268010803342  0.5867652046627038 		Uiso   ? 		C 		-0.13950
C 1.0  		0.3890302116701212 		0.9798379498775203  0.5856941394883879 		Uiso   ? 		C 		-0.13950
C 1.0  		0.8467589975504052 		0.4956111425161736  0.5612381513415092 		Uiso   ? 		C 		-0.13950
C 1.0  		0.8524511651278186 		0.0025516613278060425  0.5646298577268427 		Uiso   ? 		C 		-0.13950
C 1.0  		0.5972850323472144 		0.24181898121977263  0.5657009229011586 		Uiso   ? 		C 		-0.13950
C 1.0  		0.35095157339363103 		0.4901152565793606  0.563023259965369 		Uiso   ? 		C 		-0.13950
C 1.0  		0.10049619998743795 		0.7409631932667546  0.562130705653439 		Uiso   ? 		C 		-0.13950
C 1.0  		0.9034843916839395 		0.379216129640098  0.3516663989003731 		Uiso   ? 		C 		-0.15400
C 1.0  		0.40139595502795045 		0.881304566296087  0.3484532033774255 		Uiso   ? 		C 		-0.15400
C 1.0  		0.15486621443376675 		0.13150869920231142  0.34827469251503956 		Uiso   ? 		C 		-0.15400
C 1.0  		0.6471405690597325 		0.6253533069530809  0.3388136168085828 		Uiso   ? 		C 		-0.15400
C 1.0  		0.6520476100747441 		0.12856447459330445  0.3520234206251451 		Uiso   ? 		C 		-0.15400
C 1.0  		0.40296620815275425 		0.38471201557691104  0.35363001838661884 		Uiso   ? 		C 		-0.15400
C 1.0  		0.14799635701275043 		0.632615727655298  0.34524000785447795 		Uiso   ? 		C 		-0.15400
C 1.0  		0.901129011996734 		0.8756123987186736  0.3429193666434603 		Uiso   ? 		C 		-0.15400
C 1.0  		0.9058397713711451 		0.3862822687017147  0.6644174298006034 		Uiso   ? 		C 		-0.15357
C 1.0  		0.40276992651215376 		0.8795380315306828  0.6653099841125333 		Uiso   ? 		C 		-0.15357
C 1.0  		0.15251083474656116 		0.13484548709251934  0.6613827451400418 		Uiso   ? 		C 		-0.15357
C 1.0  		0.6522438917153446 		0.633008290936499  0.659954658240954 		Uiso   ? 		C 		-0.15357
C 1.0  		0.6534215815589474 		0.13131241756171097  0.6551348649565326 		Uiso   ? 		C 		-0.15357
C 1.0  		0.4033587714339552 		0.3778421581558948  0.6579910387547082 		Uiso   ? 		C 		-0.15357
C 1.0  		0.1509405816217574 		0.6322231643740972  0.6496010282225674 		Uiso   ? 		C 		-0.15357
C 1.0  		0.9048583631681428 		0.8850339174674959  0.6581695496170942 		Uiso   ? 		C 		-0.15357
C 1.0  		0.8738458639532694 		0.14583725896614536  0.2993627162212821 		Uiso   ? 		C 		0.30344
C 1.0  		0.3654764147980654 		0.6500847936687394  0.30168335743229974 		Uiso   ? 		C 		0.30344
C 1.0  		0.11914295584448208 		0.9009327303561334  0.29989824880844 		Uiso   ? 		C 		0.30344
C 1.0  		0.6200537026568683 		0.3988442937001445  0.30953783537728274 		Uiso   ? 		C 		0.30344
C 1.0  		0.6173057596884618 		0.898577350668928  0.30846677020296687 		Uiso   ? 		C 		0.30344
C 1.0  		0.3692057659694743 		0.15133314490295838  0.3054320855424053 		Uiso   ? 		C 		0.30344
C 1.0  		0.1191429558444821 		0.4021810815903524  0.3066816615791071 		Uiso   ? 		C 		0.30344
C 1.0  		0.8661908799698512 		0.6483182589033353  0.30150484656991383 		Uiso   ? 		C 		0.30344
C 1.0  		0.8705090760630614 		0.1556513409961686  0.6142558774701441 		Uiso   ? 		C 		0.30544
C 1.0  		0.37352396206268446 		0.6477294139815338  0.6099716167728806 		Uiso   ? 		C 		0.30544
C 1.0  		0.12208718045348906 		0.9030918284027386  0.6089005515985648 		Uiso   ? 		C 		0.30544
C 1.0  		0.6208388292192701 		0.40061082846554863  0.6183616273050215 		Uiso   ? 		C 		0.30544
C 1.0  		0.6228016456252748 		0.9021104201997363  0.61532694264446 		Uiso   ? 		C 		0.30544
C 1.0  		0.3727388355002827 		0.14799635701275046  0.614791410057302 		Uiso   ? 		C 		0.30544
C 1.0  		0.12424627850009419 		0.40100339174674965  0.6122922579838984 		Uiso   ? 		C 		0.30544
C 1.0  		0.8683499780164564 		0.6534215815589474  0.614612899194916 		Uiso   ? 		C 		0.30544
C 1.0  		0.005692167577413459 		0.3434928710508134  0.36791088737749694 		Uiso   ? 		C 		0.64988
C 1.0  		0.5081731675146034 		0.8422445198165945  0.37005301772612864 		Uiso   ? 		C 		0.64988
C 1.0  		0.259288047233214 		0.09676684881602915  0.3648762027169353 		Uiso   ? 		C 		0.64988
C 1.0  		0.7521512467809811 		0.5953222159412097  0.36594726789125115 		Uiso   ? 		C 		0.64988
C 1.0  		0.7588248225613969 		0.09558915897242636  0.36791088737749694 		Uiso   ? 		C 		0.64988
C 1.0  		0.5048363796243955 		0.34525940581621756  0.3682679091022689 		Uiso   ? 		C 		0.64988
C 1.0  		0.25222190817159723 		0.5978738772690158  0.3641621592673914 		Uiso   ? 		C 		0.64988
C 1.0  		0.003533069530808314 		0.8483292506752089  0.36451918099216335 		Uiso   ? 		C 		0.64988
C 1.0  		0.012758306639030192 		0.34447427925381574  0.6786982987914815 		Uiso   ? 		C 		0.65590
C 1.0  		0.5058177878273978 		0.8461701526286037  0.6783412770667095 		Uiso   ? 		C 		0.65590
C 1.0  		0.25752151246780985 		0.09676684881602915  0.6770917010300077 		Uiso   ? 		C 		0.65590
C 1.0  		0.760983920608002 		0.5970887507066139  0.6763776575804639 		Uiso   ? 		C 		0.65590
C 1.0  		0.7570582877959928 		0.0981408203002324  0.6774487227547796 		Uiso   ? 		C 		0.65590
C 1.0  		0.5089582940770052 		0.34270774448841157  0.6794123422410254 		Uiso   ? 		C 		0.65590
C 1.0  		0.25555869606180515 		0.5957147792224107  0.67477105981899 		Uiso   ? 		C 		0.65590
C 1.0  		0.010599208592425047 		0.8469552791910058  0.6761991467180778 		Uiso   ? 		C 		0.65590
C 1.0  		0.012954588279630655 		0.35448464292443943  0.39165283207483176 		Uiso   ? 		C 		-0.00179
C 1.0  		0.5150430249356197 		0.8561805162992275  0.3927238972491477 		Uiso   ? 		C 		-0.00179
C 1.0  		0.2659616230136298 		0.11109540857986307  0.3871900605151824 		Uiso   ? 		C 		-0.00179
C 1.0  		0.7592173858425979 		0.6100433389862446  0.38772559310234034 		Uiso   ? 		C 		-0.00179
C 1.0  		0.7660872432636141 		0.1087400288926575  0.3904032560381299 		Uiso   ? 		C 		-0.00179
C 1.0  		0.5077806042334025 		0.3595879655800515  0.3914743212124458 		Uiso   ? 		C 		-0.00179
C 1.0  		0.25928804723321397 		0.6108284655486464  0.38683303879041037 		Uiso   ? 		C 		-0.00179
C 1.0  		0.009028955467621329 		0.8628540920796433  0.38736857137756836 		Uiso   ? 		C 		-0.00179
C 1.0  		0.020020727341247387 		0.3574288675334464  0.7017262000392724 		Uiso   ? 		C 		-0.00874
C 1.0  		0.5124913636078137 		0.861087557314239  0.7004766240025706 		Uiso   ? 		C 		-0.00874
C 1.0  		0.2649802148106275 		0.10618836756485146  0.7015476891768865 		Uiso   ? 		C 		-0.00874
C 1.0  		0.7649095534200113 		0.6137726901576535  0.697798961066781 		Uiso   ? 		C 		-0.00874
C 1.0  		0.7625541737328058 		0.10952515545505938  0.7015476891768865 		Uiso   ? 		C 		-0.00874
C 1.0  		0.5164169964198229 		0.3562511776898436  0.7017262000392724 		Uiso   ? 		C 		-0.00874
C 1.0  		0.2614471452798191 		0.6110247471892469  0.697084917617237 		Uiso   ? 		C 		-0.00874
C 1.0  		0.017469066013441316 		0.861872683876641  0.6985130045163248 		Uiso   ? 		C 		-0.00874
C 1.0  		0.906232334652346 		0.23750078512656242  0.3661257787536372 		Uiso   ? 		C 		0.65374
C 1.0  		0.40375133471515606 		0.7413557565479556  0.36523322444170725 		Uiso   ? 		C 		0.65374
C 1.0  		0.15584762263676902 		0.992792538157151  0.3641621592673914 		Uiso   ? 		C 		0.65374
C 1.0  		0.6549918346837511 		0.48834872181395644  0.3696959960013567 		Uiso   ? 		C 		0.65374
C 1.0  		0.6571509327303561 		0.9902408768293449  0.3663042896160232 		Uiso   ? 		C 		0.65374
C 1.0  		0.40394761635575654 		0.24358551598517686  0.3680893982398829 		Uiso   ? 		C 		0.65374
C 1.0  		0.15525877771496766 		0.4918817913447648  0.3666613113407951 		Uiso   ? 		C 		0.65374
C 1.0  		0.9040732366057409 		0.7366449971735445  0.36451918099216335 		Uiso   ? 		C 		0.65374
C 1.0  		0.9070174612147479 		0.24613717731298287  0.6767346793052358 		Uiso   ? 		C 		0.64973
C 1.0  		0.4057141511211607 		0.7415520381885561  0.6769131901676217 		Uiso   ? 		C 		0.64973
C 1.0  		0.1530996796683625 		0.9945590729225552  0.6765561684428498 		Uiso   ? 		C 		0.64973
C 1.0  		0.6597025940581622 		0.4918817913447648  0.6788768096538674 		Uiso   ? 		C 		0.64973
C 1.0  		0.6585249042145593 		0.9918111299541487  0.6765561684428498 		Uiso   ? 		C 		0.64973
C 1.0  		0.407088122605364 		0.2376970667671629  0.6785197879290955 		Uiso   ? 		C 		0.64973
C 1.0  		0.15466993279316624 		0.4916855097041643  0.6738785055070601 		Uiso   ? 		C 		0.64973
C 1.0  		0.9050546448087432 		0.7466553608441681  0.6719148860208144 		Uiso   ? 		C 		0.64973
C 1.0  		0.8877818604359022 		0.23161233590854846  0.38611899534086647 		Uiso   ? 		C 		-0.16496
C 1.0  		0.3907967464355254 		0.7333082092833365  0.38772559310234034 		Uiso   ? 		C 		-0.16496
C 1.0  		0.14269675271653787 		0.9837635826895296  0.3864760170656385 		Uiso   ? 		C 		-0.16496
C 1.0  		0.6390930217951134 		0.4810863011117393  0.3907602777629019 		Uiso   ? 		C 		-0.16496
C 1.0  		0.6412521198417184 		0.9859226807361346  0.3882611256894982 		Uiso   ? 		C 		-0.16496
C 1.0  		0.3882450851077194 		0.2353416870799573  0.38915368000142814 		Uiso   ? 		C 		-0.16496
C 1.0  		0.13975252810753092 		0.4857970604861504  0.3879041039647263 		Uiso   ? 		C 		-0.16496
C 1.0  		0.8875855787953019 		0.7299714213931285  0.38504793016655064 		Uiso   ? 		C 		-0.16496
C 1.0  		0.8909223666855097 		0.24005244645436846  0.697798961066781 		Uiso   ? 		C 		-0.16590
C 1.0  		0.3906004647949249 		0.7337007725645375  0.6983344936539388 		Uiso   ? 		C 		-0.16590
C 1.0  		0.1395562464669304 		0.9878854971421395  0.6990485371034828 		Uiso   ? 		C 		-0.16590
C 1.0  		0.6449814710131274 		0.48461937064254756  0.7004766240025706 		Uiso   ? 		C 		-0.16590
C 1.0  		0.6445889077319262 		0.9837635826895296  0.6988700262410968 		Uiso   ? 		C 		-0.16590
C 1.0  		0.39236699956032917 		0.2310234909867471  0.7008336457273425 		Uiso   ? 		C 		-0.16590
C 1.0  		0.13935996482632998 		0.48461937064254756  0.6956568307181492 		Uiso   ? 		C 		-0.16590
C 1.0  		0.8877818604359022 		0.7403743483449532  0.6926221460575877 		Uiso   ? 		C 		-0.16590
C 1.0  		0.8834636643426922 		0.22238709880032662  0.42896160231350083 		Uiso   ? 		C 		-0.22375
C 1.0  		0.39217071791972863 		0.73900037686075  0.4319962869740624 		Uiso   ? 		C 		-0.22375
C 1.0  		0.13994880974813134 		0.9835673010489292  0.4305682000749746 		Uiso   ? 		C 		-0.22375
C 1.0  		0.6371302053891088 		0.47500157025312484  0.43503097163462395 		Uiso   ? 		C 		-0.22375
C 1.0  		0.6398781483575151 		0.9802305131587212  0.43146075438690445 		Uiso   ? 		C 		-0.22375
C 1.0  		0.38785252182651847 		0.2280792663777401  0.43253181956122033 		Uiso   ? 		C 		-0.22375
C 1.0  		0.1387711199045286 		0.4783383581433327  0.43181777611167643 		Uiso   ? 		C 		-0.22375
C 1.0  		0.8858190440298976 		0.7274197600653226  0.4280690480015709 		Uiso   ? 		C 		-0.22375
C 1.0  		0.8889595502795051 		0.23337887067395266  0.7408200789018012 		Uiso   ? 		C 		-0.22788
C 1.0  		0.3892264933107217 		0.7311491112367314  0.7422481658008891 		Uiso   ? 		C 		-0.22788
C 1.0  		0.09853338358143328 		0.9776788518309152  0.7218979274888877 		Uiso   ? 		C 		-0.22788
C 1.0  		0.644000062810125 		0.48461937064254756  0.7445688070119068 		Uiso   ? 		C 		-0.22788
C 1.0  		0.6420372464041203 		0.9833710194083286  0.743140720112819 		Uiso   ? 		C 		-0.22788
C 1.0  		0.3509515733936311 		0.2270978581747378  0.7226119709384317 		Uiso   ? 		C 		-0.22788
C 1.0  		0.13935996482632998 		0.48049745618993783  0.7402845463146434 		Uiso   ? 		C 		-0.22788
C 1.0  		0.8824822561396899 		0.7299714213931285  0.7343936878559061 		Uiso   ? 		C 		-0.22788
C 1.0  		0.02747942968406505 		0.3925632812009296  0.41450222246023677 		Uiso   ? 		C 		0.31810
C 1.0  		0.5293715846994536 		0.89524056277872  0.41485924418500864 		Uiso   ? 		C 		0.31810
C 1.0  		0.27793480309025814 		0.1511368632623579  0.41075349435013125 		Uiso   ? 		C 		0.31810
C 1.0  		0.766872369826016 		0.6514587651529427  0.40914689658865744 		Uiso   ? 		C 		0.31810
C 1.0  		0.7725645374034295 		0.1489777652157528  0.41289562469876295 		Uiso   ? 		C 		0.31810
C 1.0  		0.5309418378242573 		0.39020790151372403  0.4171798853960264 		Uiso   ? 		C 		0.31810
C 1.0  		0.2732240437158469 		0.6504773569499404  0.4084328531391135 		Uiso   ? 		C 		0.31810
C 1.0  		0.01786162929464224 		0.9032881100433391  0.41003945090058735 		Uiso   ? 		C 		0.31810
C 1.0  		0.033760442183279914 		0.3976666038565417  0.7229689926632036 		Uiso   ? 		C 		0.31192
C 1.0  		0.5236794171220401 		0.9030918284027386  0.7193987754154841 		Uiso   ? 		C 		0.31192
C 1.0  		0.28637491363607814 		0.13857483826392814  0.7270747424980811 		Uiso   ? 		C 		0.31192
C 1.0  		0.7704054393568244 		0.6565620878085549  0.7152930255806066 		Uiso   ? 		C 		0.31192
C 1.0  		0.7847339991206583 		0.14426700584134164  0.7254681447366073 		Uiso   ? 		C 		0.31192
C 1.0  		0.5309418378242573 		0.3955075058099366  0.7233260143879755 		Uiso   ? 		C 		0.31192
C 1.0  		0.27930877457446135 		0.6485145405439356  0.7202913297274139 		Uiso   ? 		C 		0.31192
C 1.0  		0.02963852773067013 		0.9009327303561334  0.7213623949017299 		Uiso   ? 		C 		0.31192
C 1.0  		0.15211827146536022 		0.2247424784875322  0.25366393545047217 		Uiso   ? 		C 		-0.06564
C 1.0  		0.6479256956221343 		0.7227090006909114  0.25205733768899835 		Uiso   ? 		C 		-0.06564
C 1.0  		0.40041454682494815 		0.9713978393317003  0.25027222906513863 		Uiso   ? 		C 		-0.06564
C 1.0  		0.8960256893411219 		0.47009452923811323  0.2481300987165069 		Uiso   ? 		C 		-0.06564
C 1.0  		0.8934740280133157 		0.9684536147226934  0.24670201181741908 		Uiso   ? 		C 		-0.06564
C 1.0  		0.6532252999183469 		0.22336850700332894  0.25509202234956 		Uiso   ? 		C 		-0.06564
C 1.0  		0.3996294202625463 		0.4724499089253188  0.2558060657991039 		Uiso   ? 		C 		-0.06564
C 1.0  		0.1485852019345518 		0.7209424659255073  0.25187882682661245 		Uiso   ? 		C 		-0.06564
C 1.0  		0.11560988631367375 		0.23985616481376798  0.5442796194148414 		Uiso   ? 		C 		-0.06911
C 1.0  		0.6516550467935431 		0.7325230827209347  0.5644513468644567 		Uiso   ? 		C 		-0.06911
C 1.0  		0.4021810815903523 		0.9765011619873123  0.5635587925525268 		Uiso   ? 		C 		-0.06911
C 1.0  		0.8606949940330382 		0.49698511400037687  0.539816847855192 		Uiso   ? 		C 		-0.06911
C 1.0  		0.864031781923246 		0.9994661139375667  0.5423159999285957 		Uiso   ? 		C 		-0.06911
C 1.0  		0.6104359022674455 		0.24201526286037311  0.5435655759652975 		Uiso   ? 		C 		-0.06911
C 1.0  		0.36449500659506306 		0.48933013001695874  0.5410664238918939 		Uiso   ? 		C 		-0.06911
C 1.0  		0.11423591482947047 		0.7378226870171471  0.5414234456166658 		Uiso   ? 		C 		-0.06911
C 1.0  		0.029049682808868785 		0.09715941209723007  0.2563415983862618 		Uiso   ? 		C 		-0.14878
C 1.0  		0.5272124866528485 		0.602977199924628  0.25205733768899835 		Uiso   ? 		C 		-0.14878
C 1.0  		0.2577177941084102 		0.8463664342692043  0.2570556418358057 		Uiso   ? 		C 		-0.14878
C 1.0  		0.7770790151372402 		0.34898875698762644  0.25205733768899835 		Uiso   ? 		C 		-0.14878
C 1.0  		0.7743310721688337 		0.8477404057534075  0.25294989200092827 		Uiso   ? 		C 		-0.14878
C 1.0  		0.5242682620438415 		0.10010363670623705  0.2558060657991039 		Uiso   ? 		C 		-0.14878
C 1.0  		0.27185007223164376 		0.34898875698762644  0.2579481961477356 		Uiso   ? 		C 		-0.14878
C 1.0  		0.02080585390364923 		0.6002292569562213  0.2511647833770685 		Uiso   ? 		C 		-0.14878
C 1.0  		0.005103322655612079 		0.09892594686263426  0.5662364554883166 		Uiso   ? 		C 		-0.15059
C 1.0  		0.5013033100935871 		0.6000329753156209  0.5657009229011586 		Uiso   ? 		C 		-0.15059
C 1.0  		0.24770743043778654 		0.8522548834872181  0.5651653903140006 		Uiso   ? 		C 		-0.15059
C 1.0  		0.750384712015577 		0.3505590101124301  0.5664149663507024 		Uiso   ? 		C 		-0.15059
C 1.0  		0.7572545694365932 		0.8487218139564098  0.5649868794516146 		Uiso   ? 		C 		-0.15059
C 1.0  		0.5079768858740029 		0.10010363670623705  0.5651653903140006 		Uiso   ? 		C 		-0.15059
C 1.0  		0.2518293448903963 		0.3509515733936311  0.5657009229011586 		Uiso   ? 		C 		-0.15059
C 1.0  		0.9890631869857421 		0.6023883550028265  0.5658794337635445 		Uiso   ? 		C 		-0.15059
C 1.0  		0.8856227623892972 		0.14995917341875512  0.19457684000071407 		Uiso   ? 		C 		-0.08068
C 1.0  		0.38353432573330815 		0.6498885120281389  0.1988611006979775 		Uiso   ? 		C 		-0.08068
C 1.0  		0.13877111990452856 		0.8989699139501288  0.1995751441475214 		Uiso   ? 		C 		-0.08068
C 1.0  		0.6341859807801018 		0.39962942026254633  0.19636194862457385 		Uiso   ? 		C 		-0.08068
C 1.0  		0.6349711073425036 		0.8997550405125306  0.20153876363376713 		Uiso   ? 		C 		-0.08068
C 1.0  		0.3853008604987124 		0.15152942654355883  0.1972545029365037 		Uiso   ? 		C 		-0.08068
C 1.0  		0.1332752339677156 		0.4002182651843478  0.2031453613952409 		Uiso   ? 		C 		-0.08068
C 1.0  		0.8836599459832926 		0.6508699202311413  0.2001106767346793 		Uiso   ? 		C 		-0.08068
C 1.0  		0.8854264807486968 		0.15133314490295838  0.5034006319284529 		Uiso   ? 		C 		-0.07925
C 1.0  		0.38765624018591793 		0.6549918346837511  0.5064353165890145 		Uiso   ? 		C 		-0.07925
C 1.0  		0.1319012624835123 		0.9013252936373343  0.5058997840018565 		Uiso   ? 		C 		-0.07925
C 1.0  		0.6316343194522958 		0.4033587714339552  0.5010799907174351 		Uiso   ? 		C 		-0.07925
C 1.0  		0.6320268827334967 		0.9030918284027386  0.5041146753779967 		Uiso   ? 		C 		-0.07925
C 1.0  		0.3872636769047171 		0.15388480623076442  0.5057212731394706 		Uiso   ? 		C 		-0.07925
C 1.0  		0.13425664217071792 		0.40689184096476355  0.5092914903871901 		Uiso   ? 		C 		-0.07925
C 1.0  		0.8815008479366874 		0.6492996671063376  0.5019725450293651 		Uiso   ? 		C 		-0.07925
C 1.0  		0.8822859744990893 		0.15329596130896303  0.8016922829754191 		Uiso   ? 		C 		-0.07536
C 1.0  		0.3800012562024998 		0.6489071038251366  0.8059765436726825 		Uiso   ? 		C 		-0.07536
C 1.0  		0.13366779724891648 		0.9044657998869418  0.8090112283332441 		Uiso   ? 		C 		-0.07536
C 1.0  		0.6345785440613028 		0.40453646127755793  0.817401238865385 		Uiso   ? 		C 		-0.07536
C 1.0  		0.6328120092958984 		0.9068211795741474  0.8156161302415252 		Uiso   ? 		C 		-0.07536
C 1.0  		0.3849082972175115 		0.15368852459016394  0.8161516628286832 		Uiso   ? 		C 		-0.07536
C 1.0  		0.13661202185792345 		0.40394761635575654  0.8111533586818758 		Uiso   ? 		C 		-0.07536
C 1.0  		0.8824822561396899 		0.6512624835123423  0.8149020867919814 		Uiso   ? 		C 		-0.07536
C 1.0  		0.9054472080899443 		0.36724294956346965  0.1658365911565719 		Uiso   ? 		C 		-0.07594
C 1.0  		0.40532158783995975 		0.8689388229382576  0.16976383012906335 		Uiso   ? 		C 		-0.07594
C 1.0  		0.1527071163871616 		0.11835782928208027  0.15102018957853586 		Uiso   ? 		C 		-0.07594
C 1.0  		0.652440173355945 		0.6173057596884618  0.15691104803727307 		Uiso   ? 		C 		-0.07594
C 1.0  		0.6538141448401482 		0.1181615476414798  0.15441189596386942 		Uiso   ? 		C 		-0.07594
C 1.0  		0.4037513347151561 		0.36567269643866596  0.15566147200057123 		Uiso   ? 		C 		-0.07594
C 1.0  		0.1536885245901639 		0.6149503800012562  0.15798211321158895 		Uiso   ? 		C 		-0.07594
C 1.0  		0.9074100244959489 		0.8683499780164564  0.16530105856941396 		Uiso   ? 		C 		-0.07594
C 1.0  		0.9040732366057409 		0.36567269643866596  0.4673414377264857 		Uiso   ? 		C 		-0.07679
C 1.0  		0.4006108284655486 		0.8693313862194587  0.4709116549742052 		Uiso   ? 		C 		-0.07679
C 1.0  		0.1572215941209723 		0.12032064568808493  0.4685910137631875 		Uiso   ? 		C 		-0.07679
C 1.0  		0.6538141448401482 		0.6200537026568683  0.4748388939466967 		Uiso   ? 		C 		-0.07679
C 1.0  		0.6549918346837511 		0.1193392374850826  0.46966207893750334 		Uiso   ? 		C 		-0.07679
C 1.0  		0.40355505307455564 		0.3678317944852711  0.4707331441118192 		Uiso   ? 		C 		-0.07679
C 1.0  		0.15290339802776207 		0.6184834495320646  0.47430336135953877 		Uiso   ? 		C 		-0.07679
C 1.0  		0.9034843916839395 		0.8665834432510521  0.46966207893750334 		Uiso   ? 		C 		-0.07679
C 1.0  		0.9038769549651405 		0.3725425538596822  0.7734875667184349 		Uiso   ? 		C 		-0.07559
C 1.0  		0.40041454682494815 		0.872864455750267  0.7825916207001197 		Uiso   ? 		C 		-0.07559
C 1.0  		0.15349224294956348 		0.12032064568808493  0.7770577839661543 		Uiso   ? 		C 		-0.07559
C 1.0  		0.6542067081213493 		0.6212313925004711  0.7738445884432068 		Uiso   ? 		C 		-0.07559
C 1.0  		0.6561695245273539 		0.12189089881288864  0.7725950124065051 		Uiso   ? 		C 		-0.07559
C 1.0  		0.40591043276176125 		0.3701871741724766  0.7722379906817329 		Uiso   ? 		C 		-0.07559
C 1.0  		0.1515294265435588 		0.6231942089064757  0.7700958603331013 		Uiso   ? 		C 		-0.07559
C 1.0  		0.900343885434332 		0.8714904842660638  0.7790214034524001 		Uiso   ? 		C 		-0.07559
C 1.0  		0.8469552791910058 		0.242800389422775  0.4535961013227655 		Uiso   ? 		C 		0.65352
C 1.0  		0.3503627284718296 		0.7431222913133597  0.4550241882218533 		Uiso   ? 		C 		0.65352
C 1.0  		0.09657056717542863 		0.9896520319075435  0.4509184383869758 		Uiso   ? 		C 		0.65352
C 1.0  		0.5988552854720182 		0.493648326110169  0.45752334029525704 		Uiso   ? 		C 		0.65352
C 1.0  		0.6008181018780226 		0.9967181709691604  0.4535961013227655 		Uiso   ? 		C 		0.65352
C 1.0  		0.34898875698762644 		0.24515576910998058  0.45555972080901125 		Uiso   ? 		C 		0.65352
C 1.0  		0.0957854406130268 		0.49325576282896805  0.4532390795979936 		Uiso   ? 		C 		0.65352
C 1.0  		0.8447961811444006 		0.7437111362351612  0.45073992752458986 		Uiso   ? 		C 		0.65352
C 1.0  		0.8479366873940081 		0.245352050750581  0.7622413823881183 		Uiso   ? 		C 		0.64853
C 1.0  		0.34722222222222215 		0.7413557565479556  0.764740534461522 		Uiso   ? 		C 		0.64853
C 1.0  		0.09519659569122538 		0.992792538157151  0.7636694692872061 		Uiso   ? 		C 		0.64853
C 1.0  		0.6004255385968219 		0.49325576282896805  0.7649190453239081 		Uiso   ? 		C 		0.64853
C 1.0  		0.5978738772690156 		0.9929888197977514  0.7618843606633464 		Uiso   ? 		C 		0.64853
C 1.0  		0.34938132026882734 		0.2410338546573708  0.7663471322229959 		Uiso   ? 		C 		0.64853
C 1.0  		0.10029991834683749 		0.49482601595377174  0.7627769149752762 		Uiso   ? 		C 		0.64853
C 1.0  		0.8447961811444006 		0.7476367690471705  0.758314143415627 		Uiso   ? 		C 		0.64853
C 1.0  		0.8591247409082344 		0.2365193769235601  0.4298541566254307 		Uiso   ? 		C 		-0.00478
C 1.0  		0.36488756987626403 		0.736056152251743  0.43288884128599225 		Uiso   ? 		C 		-0.00478
C 1.0  		0.11246938006406627 		0.9833710194083286  0.4294971349006588 		Uiso   ? 		C 		-0.00478
C 1.0  		0.6114173104704479 		0.48560077884555  0.434852460772238 		Uiso   ? 		C 		-0.00478
C 1.0  		0.6129875635952515 		0.9882780604233403  0.43092522179974657 		Uiso   ? 		C 		-0.00478
C 1.0  		0.3609619370642548 		0.2359305320017587  0.43288884128599225 		Uiso   ? 		C 		-0.00478
C 1.0  		0.11089912693926257 		0.485208215564349  0.43146075438690445 		Uiso   ? 		C 		-0.00478
C 1.0  		0.8591247409082344 		0.7370375604547453  0.4282475588639569 		Uiso   ? 		C 		-0.00478
C 1.0  		0.8616764022360405 		0.23808963004836384  0.7397490137274854 		Uiso   ? 		C 		-0.00337
C 1.0  		0.36135450034545563 		0.7344858991269393  0.742426676663275 		Uiso   ? 		C 		-0.00337
C 1.0  		0.11129169022046348 		0.984744990892532  0.743140720112819 		Uiso   ? 		C 		-0.00337
C 1.0  		0.6167169147666604 		0.485208215564349  0.7440332744247489 		Uiso   ? 		C 		-0.00337
C 1.0  		0.6139689717982538 		0.9841561459707305  0.7411771006265732 		Uiso   ? 		C 		-0.00337
C 1.0  		0.3642987249544627 		0.23180861754914894  0.7452828504614506 		Uiso   ? 		C 		-0.00337
C 1.0  		0.1124693800640663 		0.48560077884555  0.7404630571770292 		Uiso   ? 		C 		-0.00337
C 1.0  		0.8579470510646318 		0.7435148545945607  0.734750709580678 		Uiso   ? 		C 		-0.00337
C 1.0  		0.010206645311224146 		0.39805916713774264  0.45555972080901125 		Uiso   ? 		C 		0.65494
C 1.0  		0.5081731675146034 		0.9038769549651405  0.45484567735946735 		Uiso   ? 		C 		0.65494
C 1.0  		0.2602694554362163 		0.15486621443376675  0.45270354701083565 		Uiso   ? 		C 		0.65494
C 1.0  		0.7582359776395955 		0.6545992714025501  0.45306056873560757 		Uiso   ? 		C 		0.65494
C 1.0  		0.7601987940456002 		0.1505480183405565  0.45627376425855515 		Uiso   ? 		C 		0.65494
C 1.0  		0.5083694491552038 		0.4037513347151561  0.45555972080901125 		Uiso   ? 		C 		0.65494
C 1.0  		0.26085830035801766 		0.6542067081213493  0.45198950356129175 		Uiso   ? 		C 		0.65494
C 1.0  		0.00961780038942272 		0.9048583631681428  0.45306056873560757 		Uiso   ? 		C 		0.65494
C 1.0  		0.01648765781043902 		0.4037513347151561  0.7633124475624342 		Uiso   ? 		C 		0.66042
C 1.0  		0.5077806042334024 		0.9091765592613529  0.7615273389385745 		Uiso   ? 		C 		0.66042
C 1.0  		0.2634099616858238 		0.15329596130896303  0.7640264910119782 		Uiso   ? 		C 		0.66042
C 1.0  		0.7582359776395955 		0.6620579737453678  0.7593852085899426 		Uiso   ? 		C 		0.66042
C 1.0  		0.7629467370140067 		0.15820300232397463  0.7629554258376623 		Uiso   ? 		C 		0.66042
C 1.0  		0.5124913636078137 		0.4031624897933547  0.7643835127367501 		Uiso   ? 		C 		0.66042
C 1.0  		0.25987689215501536 		0.6547955530431505  0.7620628715257324 		Uiso   ? 		C 		0.66042
C 1.0  		0.011973180076628297 		0.9079988694177502  0.7624198932505043 		Uiso   ? 		C 		0.66042
C 1.0  		0.01707650273224041 		0.38117894604610264  0.434852460772238 		Uiso   ? 		C 		-0.16980
C 1.0  		0.5152393065762201 		0.8858190440298976  0.43503097163462395 		Uiso   ? 		C 		-0.16980
C 1.0  		0.2659616230136298 		0.13857483826392814  0.43181777611167643 		Uiso   ? 		C 		-0.16980
C 1.0  		0.7631430186546071 		0.6388967401545129  0.43146075438690445 		Uiso   ? 		C 		-0.16980
C 1.0  		0.7656946799824131 		0.13563061365492118  0.4341384173226941 		Uiso   ? 		C 		-0.16980
C 1.0  		0.5117062370454117 		0.3858897054205138  0.43538799335939593 		Uiso   ? 		C 		-0.16980
C 1.0  		0.2657653413730293 		0.6375227686703098  0.43074671093736056 		Uiso   ? 		C 		-0.16980
C 1.0  		0.017469066013441312 		0.8899409584825074  0.4312822435245185 		Uiso   ? 		C 		-0.16980
C 1.0  		0.0255166132780604 		0.38569342377991334  0.7449258287366787 		Uiso   ? 		C 		-0.16667
C 1.0  		0.5166132780604233 		0.892688901450914  0.7417126332137312 		Uiso   ? 		C 		-0.16667
C 1.0  		0.2687095659820363 		0.13347151560831608  0.7458183830486086 		Uiso   ? 		C 		-0.16667
C 1.0  		0.763928145217009 		0.6449814710131274  0.7381424159660115 		Uiso   ? 		C 		-0.16667
C 1.0  		0.7678537780290183 		0.1375934300609258  0.7443902961495207 		Uiso   ? 		C 		-0.16667
C 1.0  		0.5207351925130331 		0.3860859870611143  0.7447473178742926 		Uiso   ? 		C 		-0.16667
C 1.0  		0.2657653413730293 		0.6381116135921111  0.7406415680394153 		Uiso   ? 		C 		-0.16667
C 1.0  		0.019628164060046426 		0.8907260850449094  0.7422481658008891 		Uiso   ? 		C 		-0.16667
C 1.0  		0.09971107342503611 		0.242800389422775  0.254556489762402 		Uiso   ? 		C 		-0.22246
C 1.0  		0.6017995100810251 		0.7513661202185793  0.25241435941377033 		Uiso   ? 		C 		-0.22246
C 1.0  		0.35232554487783424 		0.9973070158909617  0.2534854245880862 		Uiso   ? 		C 		-0.22246
C 1.0  		0.850880912003015 		0.5020884366559889  0.2504507399275246 		Uiso   ? 		C 		-0.22246
C 1.0  		0.8506846303624144 		0.004318196093210226  0.2504507399275246 		Uiso   ? 		C 		-0.22246
C 1.0  		0.6017995100810251 		0.2459408956723824  0.25544904407433194 		Uiso   ? 		C 		-0.22246
C 1.0  		0.3499701651906287 		0.49718139564097735  0.254913511487174 		Uiso   ? 		C 		-0.22246
C 1.0  		0.0979445386596319 		0.7444962627975631  0.25170031596422643 		Uiso   ? 		C 		-0.22246
C 1.0  		0.14171534451353557 		0.2269015765341373  0.5881932915617916 		Uiso   ? 		C 		-0.22891
C 1.0  		0.5976775956284153 		0.7435148545945607  0.5665934772130884 		Uiso   ? 		C 		-0.22891
C 1.0  		0.35114785503423146 		0.9994661139375667  0.5639158142772988 		Uiso   ? 		C 		-0.22891
C 1.0  		0.8834636643426922 		0.47480528861252436  0.5808743462039665 		Uiso   ? 		C 		-0.22891
C 1.0  		0.8891558319201055 		0.9806230764399223  0.5839090308645282 		Uiso   ? 		C 		-0.22891
C 1.0  		0.635952515545506 		0.22101312731612335  0.5842660525893001 		Uiso   ? 		C 		-0.22891
C 1.0  		0.39158187299792724 		0.48363796243954527  0.585337117763616 		Uiso   ? 		C 		-0.22891
C 1.0  		0.13896740154512902 		0.7272234784247221  0.585337117763616 		Uiso   ? 		C 		-0.22891
C 1.0  		0.01629137616983857 		0.1505480183405565  0.25330691372570024 		Uiso   ? 		C 		0.31817
C 1.0  		0.5093508573582062 		0.6557769612461529  0.25134329423945445 		Uiso   ? 		C 		0.31817
C 1.0  		0.28166415426166697 		0.8972033791847246  0.25616308752387584 		Uiso   ? 		C 		0.31817
C 1.0  		0.7649095534200113 		0.4027699265121538  0.25259287027615634 		Uiso   ? 		C 		0.31817
C 1.0  		0.7633393002952076 		0.9019141385591357  0.25312840286331423 		Uiso   ? 		C 		0.31817
C 1.0  		0.515631869857421 		0.15486621443376675  0.2552705332119459 		Uiso   ? 		C 		0.31817
C 1.0  		0.2643913698888261 		0.4041438979963571  0.2579481961477356 		Uiso   ? 		C 		0.31817
C 1.0  		0.016487657810439003 		0.6555806796055524  0.25170031596422643 		Uiso   ? 		C 		0.31817
C 1.0  		0.02375007851265623 		0.15152942654355883  0.5651653903140006 		Uiso   ? 		C 		0.31818
C 1.0  		0.529567866340054 		0.6475331323409333  0.5689141184241061 		Uiso   ? 		C 		0.31818
C 1.0  		0.27597198668425343 		0.8995587588719303  0.5653439011763866 		Uiso   ? 		C 		0.31818
C 1.0  		0.7780604233402425 		0.39962942026254633  0.5665934772130884 		Uiso   ? 		C 		0.31818
C 1.0  		0.7764901702154388 		0.9005401670749326  0.5662364554883166 		Uiso   ? 		C 		0.31818
C 1.0  		0.5305492745430563 		0.15035173669995605  0.5660579446259305 		Uiso   ? 		C 		0.31818
C 1.0  		0.27793480309025814 		0.39962942026254633  0.5653439011763866 		Uiso   ? 		C 		0.31818
C 1.0  		0.03317159726147851 		0.6357562339049054  0.5751619986076153 		Uiso   ? 		C 		0.31818
C 1.0  		0.8636392186420452 		0.24495948746938007  0.3864760170656385 		Uiso   ? 		C 		-0.07084
C 1.0  		0.3625321901890584 		0.73056026631493  0.38951070172620006 		Uiso   ? 		C 		-0.07084
C 1.0  		0.11502104139187232 		0.9863152440173357  0.38611899534086647 		Uiso   ? 		C 		-0.07084
C 1.0  		0.6127912819546512 		0.4887412850951574  0.39093878862528786 		Uiso   ? 		C 		-0.07084
C 1.0  		0.613183845235852 		0.9910260033917468  0.38772559310234034 		Uiso   ? 		C 		-0.07084
C 1.0  		0.36076565542365435 		0.24005244645436846  0.3886181474142702 		Uiso   ? 		C 		-0.07084
C 1.0  		0.11227309842346583 		0.49031153821996115  0.3886181474142702 		Uiso   ? 		C 		-0.07084
C 1.0  		0.8606949940330382 		0.7366449971735445  0.38433388671700675 		Uiso   ? 		C 		-0.07084
C 1.0  		0.8634429370014447 		0.2426041077821745  0.6960138524429212 		Uiso   ? 		C 		-0.07244
C 1.0  		0.36312103511085986 		0.733504490923937  0.697620450204395 		Uiso   ? 		C 		-0.07244
C 1.0  		0.15113686326235784 		0.9955404811255575  0.7204698405897999 		Uiso   ? 		C 		-0.07244
C 1.0  		0.6167169147666604 		0.4869747503297532  0.6997625805530266 		Uiso   ? 		C 		-0.07244
C 1.0  		0.6171094780478613 		0.9841561459707305  0.697620450204395 		Uiso   ? 		C 		-0.07244
C 1.0  		0.40591043276176125 		0.23455656051755547  0.7231475035255897 		Uiso   ? 		C 		-0.07244
C 1.0  		0.11168425350166444 		0.48834872181395644  0.6965493850300791 		Uiso   ? 		C 		-0.07244
C 1.0  		0.8612838389548395 		0.750384712015577  0.6915510808832718 		Uiso   ? 		C 		-0.07244
C 1.0  		0.004318196093210205 		0.3425114628478111  0.4130741355611489 		Uiso   ? 		C 		-0.14860
C 1.0  		0.5040512530619936 		0.8451887444256014  0.4139666898730788 		Uiso   ? 		C 		-0.14860
C 1.0  		0.2577177941084103 		0.09833710194083287  0.4087898748638855 		Uiso   ? 		C 		-0.14860
C 1.0  		0.7574508510771937 		0.5982664405502167  0.41057498348774524 		Uiso   ? 		C 		-0.14860
C 1.0  		0.7605913573268012 		0.09539287733182589  0.41146753779967515 		Uiso   ? 		C 		-0.14860
C 1.0  		0.4918817913447648 		0.35271810815903526  0.4109320052125172 		Uiso   ? 		C 		-0.14860
C 1.0  		0.25418472457760183 		0.5980701589096163  0.4087898748638855 		Uiso   ? 		C 		-0.14860
C 1.0  		0.009028955467621329 		0.8487218139564098  0.4089683857262715 		Uiso   ? 		C 		-0.14860
C 1.0  		0.011384335154826938 		0.345848250738019  0.7231475035255897 		Uiso   ? 		C 		-0.14253
C 1.0  		0.5077806042334025 		0.8500957854406131  0.7227904818008177 		Uiso   ? 		C 		-0.14253
C 1.0  		0.24790371207838705 		0.09912222850323472  0.7204698405897999 		Uiso   ? 		C 		-0.14253
C 1.0  		0.7629467370140067 		0.6019957917216257  0.7208268623145719 		Uiso   ? 		C 		-0.14253
C 1.0  		0.7472442057659695 		0.10245901639344264  0.7210053731769578 		Uiso   ? 		C 		-0.14253
C 1.0  		0.5101359839206081 		0.34525940581621756  0.7243970795622914 		Uiso   ? 		C 		-0.14253
C 1.0  		0.25261447145279814 		0.5988552854720182  0.7183277102411683 		Uiso   ? 		C 		-0.14253
C 1.0  		0.010402926951824583 		0.8497032221594121  0.7208268623145719 		Uiso   ? 		C 		-0.14253
C 1.0  		0.13523805037372025 		0.15152942654355883  0.3488102251021975 		Uiso   ? 		C 		-0.08025
C 1.0  		0.6284938132026883 		0.6455703159349288  0.337385529909495 		Uiso   ? 		C 		-0.08025
C 1.0  		0.3815715093273035 		0.9013252936373343  0.34863171423981154 		Uiso   ? 		C 		-0.08025
C 1.0  		0.8842487909050939 		0.3984517304189435  0.3491672468269694 		Uiso   ? 		C 		-0.08025
C 1.0  		0.881697129577288 		0.894847999497519  0.3402417037076706 		Uiso   ? 		C 		-0.08025
C 1.0  		0.6324194460146976 		0.14701494880974814  0.3518449097627591 		Uiso   ? 		C 		-0.08025
C 1.0  		0.3831417624521073 		0.40394761635575654  0.3555936378728646 		Uiso   ? 		C 		-0.08025
C 1.0  		0.12954588279630674 		0.6520476100747441  0.3455970295792499 		Uiso   ? 		C 		-0.08025
C 1.0  		0.133864078889517 		0.15486621443376675  0.6619182777271998 		Uiso   ? 		C 		-0.07878
C 1.0  		0.633008290936499 		0.6514587651529427  0.659954658240954 		Uiso   ? 		C 		-0.07878
C 1.0  		0.38314176245210724 		0.8995587588719303  0.6660240275620771 		Uiso   ? 		C 		-0.07878
C 1.0  		0.8868004522328999 		0.40551786948056023  0.6631678537639015 		Uiso   ? 		C 		-0.07878
C 1.0  		0.8856227623892972 		0.9048583631681428  0.6610257234152699 		Uiso   ? 		C 		-0.07878
C 1.0  		0.6332045725770995 		0.15015545505935557  0.6554918866813046 		Uiso   ? 		C 		-0.07878
C 1.0  		0.3835343257333082 		0.3974703222159412  0.6572769953051644 		Uiso   ? 		C 		-0.07878
C 1.0  		0.13288267068651466 		0.6520476100747441  0.652635712883129 		Uiso   ? 		C 		-0.07878
C 1.0  		0.9052509264493437 		0.11502104139187237  0.3170352915974937 		Uiso   ? 		C 		-0.07608
C 1.0  		0.39747032221594114 		0.619072294453866  0.31989146539566937 		Uiso   ? 		C 		-0.07608
C 1.0  		0.15349224294956343 		0.8693313862194587  0.31132294400114247 		Uiso   ? 		C 		-0.07608
C 1.0  		0.6534215815589474 		0.3635135983920608  0.3140006069369321 		Uiso   ? 		C 		-0.07608
C 1.0  		0.6506736385905408 		0.8667797248916527  0.3188204002213535 		Uiso   ? 		C 		-0.07608
C 1.0  		0.4041438979963571 		0.11875039256328121  0.31060890055159857 		Uiso   ? 		C 		-0.07608
C 1.0  		0.15192198982475974 		0.3697946108912757  0.32221210660668703 		Uiso   ? 		C 		-0.07608
C 1.0  		0.8997550405125306 		0.6155392249230577  0.3136435852121602 		Uiso   ? 		C 		-0.07608
C 1.0  		0.9044657998869418 		0.12228346209408958  0.6219318445527411 		Uiso   ? 		C 		-0.07534
C 1.0  		0.40434017963695745 		0.6171094780478614  0.629429300772952 		Uiso   ? 		C 		-0.07534
C 1.0  		0.15329596130896297 		0.8701165127818604  0.6249665292133026 		Uiso   ? 		C 		-0.07534
C 1.0  		0.6557769612461529 		0.3680280761258715  0.6249665292133026 		Uiso   ? 		C 		-0.07534
C 1.0  		0.6532252999183469 		0.86992023114126  0.6319284528463558 		Uiso   ? 		C 		-0.07534
C 1.0  		0.4047327429181584 		0.11502104139187237  0.6317499419839698 		Uiso   ? 		C 		-0.07534
C 1.0  		0.1560439042773695 		0.36724294956346965  0.6235384423142148 		Uiso   ? 		C 		-0.07534
C 1.0  		0.9044657998869418 		0.6222128007034734  0.6253235509380747 		Uiso   ? 		C 		-0.07534
C 1.0  		0.09814082030023238 		0.24495948746938007  0.29954122708366804 		Uiso   ? 		C 		0.65754
C 1.0  		0.5951259343006093 		0.7417483198291565  0.2954354772487906 		Uiso   ? 		C 		0.65754
C 1.0  		0.3489887569876264 		0.9914185666729478  0.29829165104696626 		Uiso   ? 		C 		0.65754
C 1.0  		0.8455813077068024 		0.4944334526725709  0.2940073903497028 		Uiso   ? 		C 		0.65754
C 1.0  		0.8475441241128069 		0.9945590729225552  0.2954354772487906 		Uiso   ? 		C 		0.65754
C 1.0  		0.599247848753219 		0.24319295270397592  0.29989824880844 		Uiso   ? 		C 		0.65754
C 1.0  		0.3448668425350166 		0.4924706362665662  0.29882718363412414 		Uiso   ? 		C 		0.65754
C 1.0  		0.09696313045662958 		0.7437111362351612  0.2957924989735626 		Uiso   ? 		C 		0.65754
C 1.0  		0.097551975378431 		0.2416226995791722  0.6096145950481088 		Uiso   ? 		C 		0.65327
C 1.0  		0.5998366936750205 		0.7446925444381635  0.6110426819471966 		Uiso   ? 		C 		0.65327
C 1.0  		0.3464370956598203 		0.9945590729225552  0.6078294864242489 		Uiso   ? 		C 		0.65327
C 1.0  		0.8487218139564098 		0.4958074241567741  0.6055088452132312 		Uiso   ? 		C 		0.65327
C 1.0  		0.8510771936436153 		0.997895860812763  0.6087220407361789 		Uiso   ? 		C 		0.65327
C 1.0  		0.6008181018780228 		0.242800389422775  0.6092575733233367 		Uiso   ? 		C 		0.65327
C 1.0  		0.3503627284718296 		0.49423717103197035  0.6081865081490209 		Uiso   ? 		C 		0.65327
C 1.0  		0.09931851014383515 		0.7450851077193644  0.6072939538370911 		Uiso   ? 		C 		0.65327
C 1.0  		0.11325450662646817 		0.23965988317316755  0.27687034756064904 		Uiso   ? 		C 		-0.00666
C 1.0  		0.6098470573456442 		0.7378226870171471  0.2727645977257716 		Uiso   ? 		C 		-0.00666
C 1.0  		0.362335908548458 		0.9861189623767352  0.27490672807440336 		Uiso   ? 		C 		-0.00666
C 1.0  		0.8597135858300359 		0.49031153821996115  0.2713365108266838 		Uiso   ? 		C 		-0.00666
C 1.0  		0.8583396143458325 		0.9890631869857421  0.27115799996429785 		Uiso   ? 		C 		-0.00666
C 1.0  		0.6122024370328498 		0.23553796872055777  0.27740588014780704 		Uiso   ? 		C 		-0.00666
C 1.0  		0.36037309214245333 		0.48834872181395644  0.277227369285421 		Uiso   ? 		C 		-0.00666
C 1.0  		0.10775862068965515 		0.7338970542051378  0.27294310858815757 		Uiso   ? 		C 		-0.00666
C 1.0  		0.1136470699076691 		0.23436027887695496  0.5881932915617916 		Uiso   ? 		C 		-0.00035
C 1.0  		0.6120061553922492 		0.7370375604547453  0.5881932915617916 		Uiso   ? 		C 		-0.00035
C 1.0  		0.3621396269078575 		0.9900445951887444  0.5858726503507738 		Uiso   ? 		C 		-0.00035
C 1.0  		0.8591247409082344 		0.48736731361095414  0.5821239222406684 		Uiso   ? 		C 		-0.00035
C 1.0  		0.863246655360844 		0.9912222850323472  0.585337117763616 		Uiso   ? 		C 		-0.00035
C 1.0  		0.6108284655486464 		0.23318258903335218  0.5858726503507738 		Uiso   ? 		C 		-0.00035
C 1.0  		0.36410244331386216 		0.488152440173356  0.5856941394883879 		Uiso   ? 		C 		-0.00035
C 1.0  		0.11305822498586768 		0.7376264053765468  0.584980096038844 		Uiso   ? 		C 		-0.00035
C 1.0  		0.012169461717228809 		0.1529033980277621  0.29811314018458024 		Uiso   ? 		C 		0.65767
C 1.0  		0.5056215061867974 		0.6532252999183469  0.29597100983594854 		Uiso   ? 		C 		0.65767
C 1.0  		0.26164342692041953 		0.9050546448087432  0.29739909673503634 		Uiso   ? 		C 		0.65767
C 1.0  		0.7586285409207966 		0.4011996733873501  0.29704207501026436 		Uiso   ? 		C 		0.65767
C 1.0  		0.7560768795929904 		0.9017178569185353  0.29704207501026436 		Uiso   ? 		C 		0.65767
C 1.0  		0.5095471389988067 		0.15584762263676907  0.29882718363412414 		Uiso   ? 		C 		0.65767
C 1.0  		0.2565401042648075 		0.40257364487155334  0.30221889001945773 		Uiso   ? 		C 		0.65767
C 1.0  		0.007851265624018552 		0.6545992714025501  0.2950784555240187 		Uiso   ? 		C 		0.65767
C 1.0  		0.009617800389422766 		0.15781043904277373  0.6078294864242489 		Uiso   ? 		C 		0.65962
C 1.0  		0.5115099554048113 		0.6555806796055524  0.6087220407361789 		Uiso   ? 		C 		0.65962
C 1.0  		0.25928804723321397 		0.9078025877771497  0.6065799103875471 		Uiso   ? 		C 		0.65962
C 1.0  		0.7617690471704038 		0.40591043276176125  0.6094360841857228 		Uiso   ? 		C 		0.65962
C 1.0  		0.7629467370140067 		0.9038769549651405  0.6087220407361789 		Uiso   ? 		C 		0.65962
C 1.0  		0.5132764901702155 		0.15584762263676907  0.6081865081490209 		Uiso   ? 		C 		0.65962
C 1.0  		0.2612508636392187 		0.40591043276176125  0.607650975561863 		Uiso   ? 		C 		0.65962
C 1.0  		0.008636392186420412 		0.6538141448401482  0.6105071493600386 		Uiso   ? 		C 		0.65962
C 1.0  		0.0200207273412474 		0.13818227498272723  0.2759777932487192 		Uiso   ? 		C 		-0.17342
C 1.0  		0.516024433138622 		0.6426260913259217  0.27330013031292955 		Uiso   ? 		C 		-0.17342
C 1.0  		0.26929841090383766 		0.8875855787953019  0.277227369285421 		Uiso   ? 		C 		-0.17342
C 1.0  		0.7670686514666164 		0.3886376483889203  0.2743711954872454 		Uiso   ? 		C 		-0.17342
C 1.0  		0.7631430186546071 		0.8873892971547014  0.27490672807440336 		Uiso   ? 		C 		-0.17342
C 1.0  		0.5168095597010238 		0.14132278123233466  0.27740588014780704 		Uiso   ? 		C 		-0.17342
C 1.0  		0.2651764964512279 		0.38961905659192264  0.27954801049643874 		Uiso   ? 		C 		-0.17342
C 1.0  		0.016487657810439007 		0.6410558382011181  0.27330013031292955 		Uiso   ? 		C 		-0.17342
C 1.0  		0.014132278123233456 		0.14014509138873188  0.5871222263874757 		Uiso   ? 		C 		-0.17301
C 1.0  		0.5173984046228253 		0.6373264870297092  0.5892643567361074 		Uiso   ? 		C 		-0.17301
C 1.0  		0.26439136988882606 		0.8897446768419071  0.5865866938003178 		Uiso   ? 		C 		-0.17301
C 1.0  		0.7670686514666164 		0.38922649331072173  0.5880147806994056 		Uiso   ? 		C 		-0.17301
C 1.0  		0.7684426229508198 		0.8873892971547014  0.5878362698370196 		Uiso   ? 		C 		-0.17301
C 1.0  		0.5199500659506313 		0.13896740154512907  0.5873007372498616 		Uiso   ? 		C 		-0.17301
C 1.0  		0.26655046793543125 		0.38903021167012125  0.5869437155250897 		Uiso   ? 		C 		-0.17301
C 1.0  		0.012365743357829244 		0.6328120092958985  0.592477552259055 		Uiso   ? 		C 		-0.17301
C 1.0  		0.15447365115256578 		0.25398844293700146  0.4103964726253593 		Uiso   ? 		C 		-0.22715
C 1.0  		0.6514587651529427 		0.7645169901388105  0.4089683857262715 		Uiso   ? 		C 		-0.22715
C 1.0  		0.4053215878399598 		0.011188053514226495  0.4087898748638855 		Uiso   ? 		C 		-0.22715
C 1.0  		0.9019141385591357 		0.49521857923497276  0.4032560381299202 		Uiso   ? 		C 		-0.22715
C 1.0  		0.9054472080899443 		0.0037293511714088312  0.4053981684785519 		Uiso   ? 		C 		-0.22715
C 1.0  		0.6159317882042585 		0.2649802148106275  0.4312822435245185 		Uiso   ? 		C 		-0.22715
C 1.0  		0.40139595502795045 		0.5148467432950192  0.4096824291758154 		Uiso   ? 		C 		-0.22715
C 1.0  		0.1491740468563532 		0.74744048740657  0.4082543422767276 		Uiso   ? 		C 		-0.22715
C 1.0  		0.11619873123547515 		0.27322404371584696  0.7406415680394153 		Uiso   ? 		C 		-0.22707
C 1.0  		0.6088656491426419 		0.7635355819358082  0.7454613613238367 		Uiso   ? 		C 		-0.22707
C 1.0  		0.36253219018905847 		0.021002135544249734  0.7417126332137312 		Uiso   ? 		C 		-0.22707
C 1.0  		0.9068211795741474 		0.5203426292318322  0.7186847319659402 		Uiso   ? 		C 		-0.22707
C 1.0  		0.8579470510646318 		0.02080585390364927  0.7449258287366787 		Uiso   ? 		C 		-0.22707
C 1.0  		0.6116135921110484 		0.2632136800452233  0.7442117852871347 		Uiso   ? 		C 		-0.22707
C 1.0  		0.36429872495446264 		0.5207351925130331  0.7397490137274854 		Uiso   ? 		C 		-0.22707
C 1.0  		0.11168425350166443 		0.7686389045914201  0.7404630571770292 		Uiso   ? 		C 		-0.22707
C 1.0  		0.9831747377677282 		0.0981408203002324  0.40986094003820134 		Uiso   ? 		C 		0.32129
C 1.0  		0.4816751460335406 		0.5970887507066139  0.412360092111605 		Uiso   ? 		C 		0.32129
C 1.0  		0.2294532378619433 		0.8495069405188117  0.40789732055195566 		Uiso   ? 		C 		0.32129
C 1.0  		0.7486181772501728 		0.3864785503423152  0.4305682000749746 		Uiso   ? 		C 		0.32129
C 1.0  		0.7303639846743296 		0.847151560831606  0.4095039183134294 		Uiso   ? 		C 		0.32129
C 1.0  		0.47402016205012254 		0.10128132654983985  0.41003945090058735 		Uiso   ? 		C 		0.32129
C 1.0  		0.22670529489353683 		0.351344136674832  0.41271711383637694 		Uiso   ? 		C 		0.32129
C 1.0  		0.9833710194083286 		0.5988552854720182  0.41128902693728914 		Uiso   ? 		C 		0.32129
C 1.0  		0.9798379498775203 		0.09539287733182589  0.7151145147182207 		Uiso   ? 		C 		0.31437
C 1.0  		0.4771606682997299 		0.6002292569562213  0.7193987754154841 		Uiso   ? 		C 		0.31437
C 1.0  		0.22631273161233587 		0.8506846303624144  0.7202913297274139 		Uiso   ? 		C 		0.31437
C 1.0  		0.7278123233465236 		0.3515404183154325  0.7217194166265017 		Uiso   ? 		C 		0.31437
C 1.0  		0.7289900131901262 		0.8498995038000127  0.7222549492136597 		Uiso   ? 		C 		0.31437
C 1.0  		0.47598297845612714 		0.10069248162803845  0.7226119709384317 		Uiso   ? 		C 		0.31437
C 1.0  		0.22297594372212798 		0.35212926323723387  0.7202913297274139 		Uiso   ? 		C 		0.31437
C 1.0  		0.9741457823001068 		0.6033697632058288  0.7229689926632036 		Uiso   ? 		C 		0.31437
C 1.0  		0.8571619245022298 		0.27734595816845675  0.25080776165229657 		Uiso   ? 		C 		-0.06279
C 1.0  		0.3531106714402361 		0.7735459456064318  0.2504507399275246 		Uiso   ? 		C 		-0.06279
C 1.0  		0.10245901639344264 		0.0211984171848502  0.25170031596422643 		Uiso   ? 		C 		-0.06279
C 1.0  		0.605136297971233 		0.5260347968092457  0.25205733768899835 		Uiso   ? 		C 		-0.06279
C 1.0  		0.6045474530494316 		0.023357515231455312  0.25223584855138437 		Uiso   ? 		C 		-0.06279
C 1.0  		0.3552697694868413 		0.28205671754286793  0.2538424463128581 		Uiso   ? 		C 		-0.06279
C 1.0  		0.10383298787764586 		0.5301567112618555  0.25241435941377033 		Uiso   ? 		C 		-0.06279
C 1.0  		0.8520586018466177 		0.774919917090635  0.2527713811385423 		Uiso   ? 		C 		-0.06279
C 1.0  		0.8544139815338233 		0.2798976194962628  0.562487727378211 		Uiso   ? 		C 		-0.06584
C 1.0  		0.35468092456503986 		0.7790418315432448  0.5635587925525268 		Uiso   ? 		C 		-0.06584
C 1.0  		0.0987296652220338 		0.023946360153256706  0.5612381513415092 		Uiso   ? 		C 		-0.06584
C 1.0  		0.6112210288298474 		0.5327083725896615  0.5632017708277549 		Uiso   ? 		C 		-0.06584
C 1.0  		0.6017995100810251 		0.01845047421644369  0.5648083685892287 		Uiso   ? 		C 		-0.06584
C 1.0  		0.3519329815966334 		0.26910212926323723  0.5655224120387726 		Uiso   ? 		C 		-0.06584
C 1.0  		0.10481439608064819 		0.5278013315746499  0.5614166622038952 		Uiso   ? 		C 		-0.06584
C 1.0  		0.8538251366120219 		0.7682463413102193  0.5612381513415092 		Uiso   ? 		C 		-0.06584
C 1.0  		0.9874929338609384 		0.4013959550279505  0.2608043699459112 		Uiso   ? 		C 		-0.15477
C 1.0  		0.49188179134476473 		0.902895546762138  0.2622324568449991 		Uiso   ? 		C 		-0.15477
C 1.0  		0.2475111487971861 		0.15251083474656116  0.25544904407433194 		Uiso   ? 		C 		-0.15477
C 1.0  		0.7501884303749765 		0.6491033854657371  0.2590192613220515 		Uiso   ? 		C 		-0.15477
C 1.0  		0.7317379561585329 		0.14976289177815466  0.2541994680376301 		Uiso   ? 		C 		-0.15477
C 1.0  		0.49423717103197035 		0.3586065573770492  0.23277816455131298 		Uiso   ? 		C 		-0.15477
C 1.0  		0.24790371207838702 		0.6500847936687394  0.25223584855138437 		Uiso   ? 		C 		-0.15477
C 1.0  		0.9925962565165506 		0.9040732366057409  0.2558060657991039 		Uiso   ? 		C 		-0.15477
C 1.0  		0.9906334401105458 		0.40492902455875895  0.5667719880754744 		Uiso   ? 		C 		-0.15048
C 1.0  		0.5005181835311853 		0.9023067018403368  0.5671290098002464 		Uiso   ? 		C 		-0.15048
C 1.0  		0.24829627535958795 		0.15368852459016394  0.5640943251396848 		Uiso   ? 		C 		-0.15048
C 1.0  		0.7384115319389486 		0.6510662018717418  0.5669504989378604 		Uiso   ? 		C 		-0.15048
C 1.0  		0.7439074178757616 		0.15624018591796998  0.5692711401488781 		Uiso   ? 		C 		-0.15048
C 1.0  		0.4914892280635639 		0.4021810815903524  0.5680215641121763 		Uiso   ? 		C 		-0.15048
C 1.0  		0.2539884429370014 		0.6487108221845362  0.5642728360020708 		Uiso   ? 		C 		-0.15048
C 1.0  		0.9902408768293449 		0.9046620815275422  0.5648083685892287 		Uiso   ? 		C 		-0.15048
C 1.0  		0.12012436404748443 		0.34820363042522456  0.2167121869365751 		Uiso   ? 		C 		-0.23120
C 1.0  		0.6222128007034734 		0.8473478424722066  0.20564451346864457 		Uiso   ? 		C 		-0.23120
C 1.0  		0.3719537089378808 		0.09931851014383519  0.20832217640443423 		Uiso   ? 		C 		-0.23120
C 1.0  		0.8707053577036619 		0.5984627221908172  0.20939324157875008 		Uiso   ? 		C 		-0.23120
C 1.0  		0.8740421455938698 		0.09715941209723007  0.20975026330352203 		Uiso   ? 		C 		-0.23120
C 1.0  		0.622016519062873 		0.34604453237861943  0.2040379157071708 		Uiso   ? 		C 		-0.23120
C 1.0  		0.36959832925067515 		0.5959110608630112  0.20564451346864457 		Uiso   ? 		C 		-0.23120
C 1.0  		0.12424627850009416 		0.8461701526286037  0.2122494153769257 		Uiso   ? 		C 		-0.23120
C 1.0  		0.12169461717228815 		0.35330695308083665  0.5187525660936468 		Uiso   ? 		C 		-0.23237
C 1.0  		0.6167169147666604 		0.8500957854406131  0.5107195772862779 		Uiso   ? 		C 		-0.23237
C 1.0  		0.3752904968280887 		0.10167388983104077  0.5192880986808047 		Uiso   ? 		C 		-0.23237
C 1.0  		0.8679574147352553 		0.596696187425413  0.5158963922954712 		Uiso   ? 		C 		-0.23237
C 1.0  		0.8726681741096665 		0.09715941209723007  0.5080419143504883 		Uiso   ? 		C 		-0.23237
C 1.0  		0.6210351108598707 		0.3523255448778343  0.5198236312679627 		Uiso   ? 		C 		-0.23237
C 1.0  		0.3711685823754789 		0.6019957917216257  0.5130402184972956 		Uiso   ? 		C 		-0.23237
C 1.0  		0.11875039256328115 		0.8481329690346083  0.5130402184972956 		Uiso   ? 		C 		-0.23237
C 1.0  		0.12522768670309653 		0.35212926323723387  0.8272193362966137 		Uiso   ? 		C 		-0.22773
C 1.0  		0.619464857735067 		0.8542176998932229  0.8240061407736661 		Uiso   ? 		C 		-0.22773
C 1.0  		0.3735239620626845 		0.10245901639344264  0.8295399775076314 		Uiso   ? 		C 		-0.22773
C 1.0  		0.8712942026254633 		0.5982664405502167  0.8072261197093844 		Uiso   ? 		C 		-0.22773
C 1.0  		0.8738458639532694 		0.10618836756485146  0.8265052928470698 		Uiso   ? 		C 		-0.22773
C 1.0  		0.6210351108598707 		0.3509515733936311  0.8240061407736661 		Uiso   ? 		C 		-0.22773
C 1.0  		0.3709723007348784 		0.6000329753156209  0.8261482711222978 		Uiso   ? 		C 		-0.22773
C 1.0  		0.12208718045348906 		0.8528437284090196  0.8261482711222978 		Uiso   ? 		C 		-0.22773
C 1.0  		0.10108504490923936 		0.12895703787450538  0.1658365911565719 		Uiso   ? 		C 		-0.22715
C 1.0  		0.599247848753219 		0.630456629608693  0.16744318891804566 		Uiso   ? 		C 		-0.22715
C 1.0  		0.35468092456503986 		0.8791454682494819  0.14959210267944806 		Uiso   ? 		C 		-0.22715
C 1.0  		0.8565730795804284 		0.37587934174989013  0.1440582659454828 		Uiso   ? 		C 		-0.22715
C 1.0  		0.8565730795804284 		0.8789491866088813  0.14602188543172853 		Uiso   ? 		C 		-0.22715
C 1.0  		0.6019957917216257 		0.13013472771810816  0.16547956943179995 		Uiso   ? 		C 		-0.22715
C 1.0  		0.3501664468312292 		0.38039381948370077  0.14816401578036023 		Uiso   ? 		C 		-0.22715
C 1.0  		0.10049619998743795 		0.6308491928898938  0.15280529820239563 		Uiso   ? 		C 		-0.22715
C 1.0  		0.10226273475284216 		0.13209754412411281  0.4668059051393278 		Uiso   ? 		C 		-0.23275
C 1.0  		0.6002292569562213 		0.6322231643740972  0.46412824220353815 		Uiso   ? 		C 		-0.23275
C 1.0  		0.34741850386282264 		0.883856227623893  0.4639497313411522 		Uiso   ? 		C 		-0.23275
C 1.0  		0.850488348721814 		0.38078638276490173  0.4664488834145558 		Uiso   ? 		C 		-0.23275
C 1.0  		0.8500957854406131 		0.8797343131712833  0.4605580249558186 		Uiso   ? 		C 		-0.23275
C 1.0  		0.6025846366434269 		0.13406036053011747  0.46073653581820456 		Uiso   ? 		C 		-0.23275
C 1.0  		0.3515404183154325 		0.37980497456189943  0.45788036202002896 		Uiso   ? 		C 		-0.23275
C 1.0  		0.1012813265498398 		0.633008290936499  0.4632356878916083 		Uiso   ? 		C 		-0.23275
C 1.0  		0.10265529803404308 		0.13209754412411281  0.7611703172138026 		Uiso   ? 		C 		-0.22580
C 1.0  		0.6000329753156209 		0.6341859807801018  0.772416501544119 		Uiso   ? 		C 		-0.22580
C 1.0  		0.35016644683122916 		0.881304566296087  0.7649190453239081 		Uiso   ? 		C 		-0.22580
C 1.0  		0.8516660385654169 		0.3862822687017147  0.7629554258376623 		Uiso   ? 		C 		-0.22580
C 1.0  		0.8477404057534075 		0.8830711010614911  0.7681322408468556 		Uiso   ? 		C 		-0.22580
C 1.0  		0.602192073362226 		0.13484548709251934  0.7658115996358379 		Uiso   ? 		C 		-0.22580
C 1.0  		0.35271810815903526 		0.38039381948370077  0.7584926542780128 		Uiso   ? 		C 		-0.22580
C 1.0  		0.09872966522203376 		0.6381116135921111  0.7640264910119782 		Uiso   ? 		C 		-0.22580
C 1.0  		0.15408108787136485 		0.2577177941084103  0.45448865563469537 		Uiso   ? 		C 		0.65183
C 1.0  		0.6520476100747441 		0.7574508510771937  0.4528820578732216 		Uiso   ? 		C 		0.65183
C 1.0  		0.40591043276176125 		0.005495885936813015  0.45270354701083565 		Uiso   ? 		C 		0.65183
C 1.0  		0.9072137428553483 		0.5034624081401922  0.4480622645888002 		Uiso   ? 		C 		0.65183
C 1.0  		0.9078025877771497 		0.004318196093210226  0.45056141666220395 		Uiso   ? 		C 		0.65183
C 1.0  		0.6573472143709567 		0.2571289491866089  0.45306056873560757 		Uiso   ? 		C 		0.65183
C 1.0  		0.4031624897933546 		0.5058177878273978  0.45198950356129175 		Uiso   ? 		C 		0.65183
C 1.0  		0.15368852459016388 		0.7537214999057849  0.45198950356129175 		Uiso   ? 		C 		0.65183
C 1.0  		0.15741787576157276 		0.2606620187174173  0.7625984041128904 		Uiso   ? 		C 		0.64859
C 1.0  		0.6538141448401482 		0.7629467370140067  0.765454577911066 		Uiso   ? 		C 		0.64859
C 1.0  		0.4063029960429621 		0.01688022109163997  0.7617058498009605 		Uiso   ? 		C 		0.64859
C 1.0  		0.9074100244959489 		0.5095471389988067  0.7618843606633464 		Uiso   ? 		C 		0.64859
C 1.0  		0.9017178569185353 		0.012562024998429748  0.7672396865349257 		Uiso   ? 		C 		0.64859
C 1.0  		0.6555806796055524 		0.26282111676402237  0.7638479801495921 		Uiso   ? 		C 		0.64859
C 1.0  		0.40630299604296205 		0.5087620124364048  0.7608132954890304 		Uiso   ? 		C 		0.64859
C 1.0  		0.15604390427736947 		0.7617690471704038  0.7618843606633464 		Uiso   ? 		C 		0.64859
C 1.0  		0.14210790779473648 		0.2651764964512279  0.43110373266213253 		Uiso   ? 		C 		-0.00593
C 1.0  		0.6377190503109101 		0.7623578920922053  0.43074671093736056 		Uiso   ? 		C 		-0.00593
C 1.0  		0.3909930280761259 		0.010795490233025564  0.4305682000749746 		Uiso   ? 		C 		-0.00593
C 1.0  		0.8938665912945167 		0.5083694491552038  0.42485585247862334 		Uiso   ? 		C 		-0.00593
C 1.0  		0.8940628729351171 		0.011580616795427424  0.4280690480015709 		Uiso   ? 		C 		-0.00593
C 1.0  		0.6432149362477232 		0.26399880660762515  0.43092522179974657 		Uiso   ? 		C 		-0.00593
C 1.0  		0.3878525218265184 		0.5124913636078137  0.43074671093736056 		Uiso   ? 		C 		-0.00593
C 1.0  		0.13896740154512902 		0.7574508510771937  0.4294971349006588 		Uiso   ? 		C 		-0.00593
C 1.0  		0.14328559763833928 		0.2692984109038377  0.7402845463146434 		Uiso   ? 		C 		-0.00244
C 1.0  		0.6365413604673074 		0.769816594435023  0.7454613613238367 		Uiso   ? 		C 		-0.00244
C 1.0  		0.38961905659192264 		0.02375007851265624  0.7408200789018012 		Uiso   ? 		C 		-0.00244
C 1.0  		0.892688901450914 		0.5193612210288299  0.7404630571770292 		Uiso   ? 		C 		-0.00244
C 1.0  		0.8862116073110985 		0.0211984171848502  0.7458183830486086 		Uiso   ? 		C 		-0.00244
C 1.0  		0.6383078952327115 		0.2708686640286414  0.7438547635623628 		Uiso   ? 		C 		-0.00244
C 1.0  		0.3919744362791282 		0.5173984046228253  0.7388564594155556 		Uiso   ? 		C 		-0.00244
C 1.0  		0.14053765466993273 		0.769816594435023  0.7402845463146434 		Uiso   ? 		C 		-0.00244
C 1.0  		0.9975032975315621 		0.0948040324100245  0.4528820578732216 		Uiso   ? 		C 		0.65491
C 1.0  		0.49462973431317125 		0.5998366936750205  0.4553812099466253 		Uiso   ? 		C 		0.65491
C 1.0  		0.2422115445009735 		0.847151560831606  0.4510969492493619 		Uiso   ? 		C 		0.65491
C 1.0  		0.7446925444381635 		0.3456519690974185  0.4539531230475375 		Uiso   ? 		C 		0.65491
C 1.0  		0.7421408831103574 		0.8457775893474029  0.4528820578732216 		Uiso   ? 		C 		0.65491
C 1.0  		0.493648326110169 		0.09558915897242636  0.45198950356129175 		Uiso   ? 		C 		0.65491
C 1.0  		0.24378179762577726 		0.34604453237861943  0.45484567735946735 		Uiso   ? 		C 		0.65491
C 1.0  		0.9929888197977514 		0.5984627221908172  0.45555972080901125 		Uiso   ? 		C 		0.65491
C 1.0  		0.9902408768293449 		0.09225237108221845  0.7588496760027849 		Uiso   ? 		C 		0.65600
C 1.0  		0.49188179134476473 		0.5964999057848126  0.7625984041128904 		Uiso   ? 		C 		0.65600
C 1.0  		0.24181898121977258 		0.847151560831606  0.7618843606633464 		Uiso   ? 		C 		0.65600
C 1.0  		0.7417483198291565 		0.3495776019094278  0.7636694692872061 		Uiso   ? 		C 		0.65600
C 1.0  		0.7405706299855538 		0.8477404057534075  0.7650975561862939 		Uiso   ? 		C 		0.65600
C 1.0  		0.4918817913447648 		0.0987296652220338  0.7645620235991362 		Uiso   ? 		C 		0.65600
C 1.0  		0.24103385465737076 		0.34604453237861943  0.7615273389385745 		Uiso   ? 		C 		0.65600
C 1.0  		0.9896520319075435 		0.5970887507066139  0.7636694692872061 		Uiso   ? 		C 		0.65600
C 1.0  		0.9890631869857421 		0.11109540857986307  0.43235330869883437 		Uiso   ? 		C 		-0.17056
C 1.0  		0.4854044972049494 		0.6127912819546512  0.43306735214837827 		Uiso   ? 		C 		-0.17056
C 1.0  		0.23593053200175865 		0.8632466553608441  0.42967564576304473 		Uiso   ? 		C 		-0.17056
C 1.0  		0.73900037686075 		0.3603730921424534  0.43181777611167643 		Uiso   ? 		C 		-0.17056
C 1.0  		0.7368412788141449 		0.8608912756736387  0.43092522179974657 		Uiso   ? 		C 		-0.17056
C 1.0  		0.48560077884555 		0.11266566170466678  0.43163926524929047 		Uiso   ? 		C 		-0.17056
C 1.0  		0.23671565856416052 		0.362728471829659  0.4341384173226941 		Uiso   ? 		C 		-0.17056
C 1.0  		0.9851375541737329 		0.6125950003140507  0.43360288473553615 		Uiso   ? 		C 		-0.17056
C 1.0  		0.984744990892532 		0.10815118397085612  0.7374283725164678 		Uiso   ? 		C 		-0.16641
C 1.0  		0.4846193706425475 		0.6131838452358521  0.7417126332137312 		Uiso   ? 		C 		-0.16641
C 1.0  		0.23416399723635448 		0.8638355002826456  0.7413556114889591 		Uiso   ? 		C 		-0.16641
C 1.0  		0.7325230827209347 		0.36567269643866596  0.743140720112819 		Uiso   ? 		C 		-0.16641
C 1.0  		0.7346821807675398 		0.8634429370014447  0.7438547635623628 		Uiso   ? 		C 		-0.16641
C 1.0  		0.4830491175177439 		0.11443219647007097  0.7442117852871347 		Uiso   ? 		C 		-0.16641
C 1.0  		0.2323974624709503 		0.3639061616732618  0.742426676663275 		Uiso   ? 		C 		-0.16641
C 1.0  		0.9833710194083286 		0.6151466616418567  0.7438547635623628 		Uiso   ? 		C 		-0.16641
C 1.0  		0.9048583631681428 		0.24888512028138937  0.25241435941377033 		Uiso   ? 		C 		-0.22683
C 1.0  		0.4059104327617612 		0.7570582877959928  0.25205733768899835 		Uiso   ? 		C 		-0.22683
C 1.0  		0.15761415740217324 		0.012758306639030213  0.25223584855138437 		Uiso   ? 		C 		-0.22683
C 1.0  		0.6520476100747441 		0.49600370579737457  0.2570556418358057 		Uiso   ? 		C 		-0.22683
C 1.0  		0.6565620878085549 		0.004710759374411156  0.25241435941377033 		Uiso   ? 		C 		-0.22683
C 1.0  		0.40061082846554863 		0.25006281012499215  0.25616308752387584 		Uiso   ? 		C 		-0.22683
C 1.0  		0.15054801834055648 		0.5032661264995918  0.25205733768899835 		Uiso   ? 		C 		-0.22683
C 1.0  		0.9046620815275422 		0.7586285409207966  0.2541994680376301 		Uiso   ? 		C 		-0.22683
C 1.0  		0.9042695182463414 		0.2571289491866089  0.5658794337635445 		Uiso   ? 		C 		-0.22597
C 1.0  		0.40375133471515606 		0.7515624018591798  0.5637373034149128 		Uiso   ? 		C 		-0.22597
C 1.0  		0.15211827146536022 		0.007654983983418127  0.5665934772130884 		Uiso   ? 		C 		-0.22597
C 1.0  		0.6500847936687394 		0.4924706362665662  0.5660579446259305 		Uiso   ? 		C 		-0.22597
C 1.0  		0.6555806796055524 		0.009617800389422776  0.5648083685892287 		Uiso   ? 		C 		-0.22597
C 1.0  		0.4053215878399598 		0.25398844293700146  0.5649868794516146 		Uiso   ? 		C 		-0.22597
C 1.0  		0.14780007537214998 		0.4924706362665662  0.562130705653439 		Uiso   ? 		C 		-0.22597
C 1.0  		0.908783995980152 		0.7658909616230137  0.5596315535800354 		Uiso   ? 		C 		-0.22597
C 1.0  		0.9851375541737329 		0.3466333773004209  0.2565201092486478 		Uiso   ? 		C 		0.32233
C 1.0  		0.4795160479869355 		0.8487218139564098  0.2600903264963673 		Uiso   ? 		C 		0.32233
C 1.0  		0.22552760504993408 		0.1020664531122417  0.25687713097341974 		Uiso   ? 		C 		0.32233
C 1.0  		0.7174093963946988 		0.6057251428930344  0.2590192613220515 		Uiso   ? 		C 		0.32233
C 1.0  		0.7380189686577476 		0.09500031405062496  0.25509202234956 		Uiso   ? 		C 		0.32233
C 1.0  		0.4779457948621318 		0.3858897054205138  0.27419268462485946 		Uiso   ? 		C 		0.32233
C 1.0  		0.22572388669053448 		0.59964041203442  0.25366393545047217 		Uiso   ? 		C 		0.32233
C 1.0  		0.9770900069091137 		0.8502920670812135  0.2556275549367179 		Uiso   ? 		C 		0.32233
C 1.0  		0.9829784561271278 		0.3495776019094278  0.5683785858369482 		Uiso   ? 		C 		0.32094
C 1.0  		0.4789272030651341 		0.8510771936436154  0.5671290098002464 		Uiso   ? 		C 		0.32094
C 1.0  		0.22356478864392942 		0.10363670623704542  0.5673075206626323 		Uiso   ? 		C 		0.32094
C 1.0  		0.7338970542051378 		0.5949296526600089  0.5642728360020708 		Uiso   ? 		C 		0.32094
C 1.0  		0.7244755354563156 		0.10344042459644495  0.5692711401488781 		Uiso   ? 		C 		0.32094
C 1.0  		0.48246027259594254 		0.3470259405816218  0.5667719880754744 		Uiso   ? 		C 		0.32094
C 1.0  		0.2263127316123359 		0.602192073362226  0.5660579446259305 		Uiso   ? 		C 		0.32094
C 1.0  		0.9837635826895296 		0.8489180955970104  0.5633802816901409 		Uiso   ? 		C 		0.32094
C 1.0  		0.10187017147164122 		0.27302776207524654  0.40736178796479766 		Uiso   ? 		C 		-0.06518
C 1.0  		0.5970887507066139 		0.7586285409207966  0.4082543422767276 		Uiso   ? 		C 		-0.06518
C 1.0  		0.3495776019094278 		0.017665347654041832  0.40914689658865744 		Uiso   ? 		C 		-0.06518
C 1.0  		0.856376797939828 		0.5274087682934488  0.4021849729556044 		Uiso   ? 		C 		-0.06518
C 1.0  		0.8540214182526223 		0.021590980466051127  0.40664774451525376 		Uiso   ? 		C 		-0.06518
C 1.0  		0.6412521198417185 		0.25869920231141263  0.3879041039647263 		Uiso   ? 		C 		-0.06518
C 1.0  		0.3466333773004208 		0.5197537843100308  0.41200307038683304 		Uiso   ? 		C 		-0.06518
C 1.0  		0.09872966522203376 		0.7704054393568244  0.4075402988271836 		Uiso   ? 		C 		-0.06518
C 1.0  		0.14387444256014068 		0.2655690597324289  0.696906406754851 		Uiso   ? 		C 		-0.06311
C 1.0  		0.6345785440613028 		0.7729571006846304  0.7022617326264304 		Uiso   ? 		C 		-0.06311
C 1.0  		0.3882450851077194 		0.020217008981847875  0.6972634284796231 		Uiso   ? 		C 		-0.06311
C 1.0  		0.8514697569248163 		0.5193612210288299  0.7165426016173085 		Uiso   ? 		C 		-0.06311
C 1.0  		0.8877818604359022 		0.021590980466051127  0.7015476891768865 		Uiso   ? 		C 		-0.06311
C 1.0  		0.6357562339049054 		0.27675711324665536  0.7002981131401846 		Uiso   ? 		C 		-0.06311
C 1.0  		0.3907967464355254 		0.5115099554048113  0.6956568307181492 		Uiso   ? 		C 		-0.06311
C 1.0  		0.13994880974813134 		0.7729571006846304  0.6963708741676932 		Uiso   ? 		C 		-0.06311
C 1.0  		0.9969144526097607 		0.15133314490295838  0.4111105160749032 		Uiso   ? 		C 		-0.15396
C 1.0  		0.4889375667357578 		0.6536178631995478  0.4084328531391135 		Uiso   ? 		C 		-0.15396
C 1.0  		0.2433892343445763 		0.9026992651215376  0.4070047662400257 		Uiso   ? 		C 		-0.15396
C 1.0  		0.7346821807675398 		0.359784247220652  0.38772559310234034 		Uiso   ? 		C 		-0.15396
C 1.0  		0.7458702342817662 		0.900736448715533  0.4089683857262715 		Uiso   ? 		C 		-0.15396
C 1.0  		0.48854500345455687 		0.15427736951196536  0.4118245595244471 		Uiso   ? 		C 		-0.15396
C 1.0  		0.24378179762577726 		0.4053215878399598  0.4139666898730788 		Uiso   ? 		C 		-0.15396
C 1.0  		0.9922036932353495 		0.6534215815589474  0.4095039183134294 		Uiso   ? 		C 		-0.15396
C 1.0  		0.9894557502669432 		0.1511368632623579  0.7181491993787822 		Uiso   ? 		C 		-0.15615
C 1.0  		0.49462973431317125 		0.6528327366371459  0.7186847319659402 		Uiso   ? 		C 		-0.15615
C 1.0  		0.24613717731298282 		0.9023067018403368  0.7186847319659402 		Uiso   ? 		C 		-0.15615
C 1.0  		0.7391966585013504 		0.40649927768356264  0.7208268623145719 		Uiso   ? 		C 		-0.15615
C 1.0  		0.7460665159223667 		0.9023067018403368  0.7210053731769578 		Uiso   ? 		C 		-0.15615
C 1.0  		0.4924706362665662 		0.15329596130896303  0.7222549492136597 		Uiso   ? 		C 		-0.15615
C 1.0  		0.2420152628603731 		0.4043401796369575  0.7210053731769578 		Uiso   ? 		C 		-0.15615
C 1.0  		0.9931851014383518 		0.6565620878085549  0.7215409057641158 		Uiso   ? 		C 		-0.15615
C 1.0  		0.8693313862194587 		0.34604453237861943  0.35077384458844324 		Uiso   ? 		C 		-0.22969
C 1.0  		0.3682243577664719 		0.8479366873940081  0.35862832253342614 		Uiso   ? 		C 		-0.22969
C 1.0  		0.12346115193769236 		0.09892594686263426  0.36166300719398775 		Uiso   ? 		C 		-0.22969
C 1.0  		0.6169131964072608 		0.596303624144212  0.35969938770774207 		Uiso   ? 		C 		-0.22969
C 1.0  		0.6196611393756674 		0.09323377928522078  0.3550581052857067 		Uiso   ? 		C 		-0.22969
C 1.0  		0.36822435776647194 		0.34997016519062873  0.35844981167104023 		Uiso   ? 		C 		-0.22969
C 1.0  		0.11541360467307325 		0.6000329753156209  0.3573787464967243 		Uiso   ? 		C 		-0.22969
C 1.0  		0.8701165127818604 		0.8463664342692043  0.36344811581784753 		Uiso   ? 		C 		-0.22969
C 1.0  		0.8740421455938698 		0.3519329815966334  0.6699512665345687 		Uiso   ? 		C 		-0.23201
C 1.0  		0.36900948432887376 		0.8467589975504052  0.6645959406629893 		Uiso   ? 		C 		-0.23201
C 1.0  		0.11992808240688399 		0.10088876326863891  0.6692372230850248 		Uiso   ? 		C 		-0.23201
C 1.0  		0.6214276741410716 		0.5984627221908172  0.6688802013602528 		Uiso   ? 		C 		-0.23201
C 1.0  		0.6247644620312794 		0.10010363670623705  0.675306592406148 		Uiso   ? 		C 		-0.23201
C 1.0  		0.37057973745367756 		0.34447427925381574  0.6681661579107089 		Uiso   ? 		C 		-0.23201
C 1.0  		0.11776898436027884 		0.5984627221908172  0.6613827451400418 		Uiso   ? 		C 		-0.23201
C 1.0  		0.8738458639532694 		0.8518623202060173  0.6719148860208144 		Uiso   ? 		C 		-0.23201
C 1.0  		0.09951479178443563 		0.3809826644055022  0.30703868330387907 		Uiso   ? 		C 		-0.23053
C 1.0  		0.5978738772690158 		0.8795380315306828  0.31185847658830046 		Uiso   ? 		C 		-0.23053
C 1.0  		0.35036272847182964 		0.13033100935870864  0.3052535746800193 		Uiso   ? 		C 		-0.23053
C 1.0  		0.8467589975504052 		0.6290826581244897  0.3045395312304754 		Uiso   ? 		C 		-0.23053
C 1.0  		0.8538251366120219 		0.1271905031091012  0.30257591174422965 		Uiso   ? 		C 		-0.23053
C 1.0  		0.59964041203442 		0.379216129640098  0.31239400917545834 		Uiso   ? 		C 		-0.23053
C 1.0  		0.3460445323786194 		0.630064066327492  0.30364697691854553 		Uiso   ? 		C 		-0.23053
C 1.0  		0.0995147917844356 		0.8807157213742856  0.3034684660561595 		Uiso   ? 		C 		-0.23053
C 1.0  		0.10383298787764586 		0.38157150932730355  0.6149699209196879 		Uiso   ? 		C 		-0.23340
C 1.0  		0.6016032284404246 		0.8820896928584888  0.6183616273050215 		Uiso   ? 		C 		-0.23340
C 1.0  		0.35330695308083665 		0.12915331951510584  0.6169335404059337 		Uiso   ? 		C 		-0.23340
C 1.0  		0.8502920670812135 		0.632615727655298  0.6160409860940038 		Uiso   ? 		C 		-0.23340
C 1.0  		0.8510771936436154 		0.13484548709251934  0.6142558774701441 		Uiso   ? 		C 		-0.23340
C 1.0  		0.602192073362226 		0.37980497456189943  0.6212178011031971 		Uiso   ? 		C 		-0.23340
C 1.0  		0.353895798002638 		0.6284938132026883  0.6113997036719685 		Uiso   ? 		C 		-0.23340
C 1.0  		0.10206645311224165 		0.8832673827020916  0.6083650190114068 		Uiso   ? 		C 		-0.23340
C 1.0  		0.9046620815275422 		0.25124049996859493  0.2972205858726504 		Uiso   ? 		C 		0.65000
C 1.0  		0.40728440424596446 		0.7594136674831984  0.2957924989735626 		Uiso   ? 		C 		0.65000
C 1.0  		0.15349224294956348 		0.007851265624018592  0.29739909673503634 		Uiso   ? 		C 		0.65000
C 1.0  		0.65028107530934 		0.5013033100935871  0.3013263357075278 		Uiso   ? 		C 		0.65000
C 1.0  		0.6589174674957604 		0.006084730858614409  0.29632803156072046 		Uiso   ? 		C 		0.65000
C 1.0  		0.4041438979963571 		0.2555586960618052  0.30025527053321194 		Uiso   ? 		C 		0.65000
C 1.0  		0.15270711638716158 		0.5052289429055964  0.29739909673503634 		Uiso   ? 		C 		0.65000
C 1.0  		0.906232334652346 		0.7566657245147919  0.29811314018458024 		Uiso   ? 		C 		0.65000
C 1.0  		0.9060360530117455 		0.2598768921550154  0.6097931059104946 		Uiso   ? 		C 		0.65208
C 1.0  		0.4029662081527542 		0.7529363733433829  0.6087220407361789 		Uiso   ? 		C 		0.65208
C 1.0  		0.14976289177815466 		0.00569216757741348  0.6097931059104946 		Uiso   ? 		C 		0.65208
C 1.0  		0.6597025940581622 		0.5054252245461969  0.6090790624609508 		Uiso   ? 		C 		0.65208
C 1.0  		0.6565620878085549 		0.006084730858614409  0.6092575733233367 		Uiso   ? 		C 		0.65208
C 1.0  		0.40787324916776585 		0.25457728785880285  0.6094360841857228 		Uiso   ? 		C 		0.65208
C 1.0  		0.15486621443376672 		0.5028735632183908  0.6056873560756172 		Uiso   ? 		C 		0.65208
C 1.0  		0.9097654041831543 		0.7594136674831984  0.6040807583141434 		Uiso   ? 		C 		0.65208
C 1.0  		0.892688901450914 		0.25830663903021167  0.27347864117531556 		Uiso   ? 		C 		-0.00372
C 1.0  		0.39393725268513285 		0.7662835249042146  0.2731216194505436 		Uiso   ? 		C 		-0.00372
C 1.0  		0.14348187927893977 		0.01805791093524276  0.27401417376247345 		Uiso   ? 		C 		-0.00372
C 1.0  		0.6404669932793167 		0.5083694491552038  0.27740588014780704 		Uiso   ? 		C 		-0.00372
C 1.0  		0.6445889077319263 		0.011973180076628353  0.2738356629000875 		Uiso   ? 		C 		-0.00372
C 1.0  		0.3907967464355255 		0.2612508636392187  0.277227369285421 		Uiso   ? 		C 		-0.00372
C 1.0  		0.14171534451353557 		0.5140616167326174  0.27472821721201734 		Uiso   ? 		C 		-0.00372
C 1.0  		0.892688901450914 		0.7653021167012123  0.2759777932487192 		Uiso   ? 		C 		-0.00372
C 1.0  		0.8928851830915144 		0.2671393128572326  0.5869437155250897 		Uiso   ? 		C 		-0.00492
C 1.0  		0.3923669995603291 		0.7621616104516048  0.5855156286260019 		Uiso   ? 		C 		-0.00492
C 1.0  		0.13700458513912442 		0.012169461717228817  0.5867652046627038 		Uiso   ? 		C 		-0.00492
C 1.0  		0.6457665975755292 		0.5097434206394071  0.5862296720755458 		Uiso   ? 		C 		-0.00492
C 1.0  		0.6424298096853214 		0.011776898436027888  0.5871222263874757 		Uiso   ? 		C 		-0.00492
C 1.0  		0.3927595628415301 		0.2608583003580177  0.5874792481122476 		Uiso   ? 		C 		-0.00492
C 1.0  		0.13994880974813137 		0.5062103511085988  0.5831949874149842 		Uiso   ? 		C 		-0.00492
C 1.0  		0.8960256893411219 		0.7666760881854155  0.5817669005158964 		Uiso   ? 		C 		-0.00492
C 1.0  		0.9929888197977514 		0.34427799761321526  0.3006122922579839 		Uiso   ? 		C 		0.65648
C 1.0  		0.49109666478236286 		0.8451887444256014  0.30257591174422965 		Uiso   ? 		C 		0.65648
C 1.0  		0.2443706425475787 		0.0942151874882231  0.2965065424231065 		Uiso   ? 		C 		0.65648
C 1.0  		0.7388040952201494 		0.5933593995352051  0.29882718363412414 		Uiso   ? 		C 		0.65648
C 1.0  		0.7439074178757616 		0.09676684881602915  0.2991842053588961 		Uiso   ? 		C 		0.65648
C 1.0  		0.49600370579737457 		0.3480073487846241  0.300076759670826 		Uiso   ? 		C 		0.65648
C 1.0  		0.2420152628603731 		0.5953222159412097  0.29561398811117656 		Uiso   ? 		C 		0.65648
C 1.0  		0.9912222850323472 		0.844992462785001  0.2979346293221943 		Uiso   ? 		C 		0.65648
C 1.0  		0.9976995791721627 		0.3501664468312292  0.6112211928095825 		Uiso   ? 		C 		0.65887
C 1.0  		0.49364832611016896 		0.8459738709880033  0.6101501276352667 		Uiso   ? 		C 		0.65887
C 1.0  		0.24417436090697822 		0.09578544061302682  0.6087220407361789 		Uiso   ? 		C 		0.65887
C 1.0  		0.7446925444381635 		0.5939482444570064  0.6089005515985648 		Uiso   ? 		C 		0.65887
C 1.0  		0.744103699516362 		0.09853338358143333  0.6103286384976526 		Uiso   ? 		C 		0.65887
C 1.0  		0.49521857923497276 		0.3440817159726148  0.6103286384976526 		Uiso   ? 		C 		0.65887
C 1.0  		0.2457446140317819 		0.5917891464104014  0.6051518234884593 		Uiso   ? 		C 		0.65887
C 1.0  		0.9945590729225552 		0.8463664342692043  0.607472464699477 		Uiso   ? 		C 		0.65887
C 1.0  		0.9843524276113309 		0.3588028390176497  0.27954801049643874 		Uiso   ? 		C 		-0.17214
C 1.0  		0.4844230890019471 		0.861872683876641  0.2820471625698424 		Uiso   ? 		C 		-0.17214
C 1.0  		0.23828591168896426 		0.11266566170466678  0.27740588014780704 		Uiso   ? 		C 		-0.17214
C 1.0  		0.7329156460021355 		0.6123987186734502  0.2793694996340527 		Uiso   ? 		C 		-0.17214
C 1.0  		0.7348784624081403 		0.10893631053325797  0.27687034756064904 		Uiso   ? 		C 		-0.17214
C 1.0  		0.48736731361095414 		0.3589991206582501  0.27633481497349116 		Uiso   ? 		C 		-0.17214
C 1.0  		0.2378933484077633 		0.6112210288298474  0.27419268462485946 		Uiso   ? 		C 		-0.17214
C 1.0  		0.9841561459707305 		0.8622652471578418  0.27740588014780704 		Uiso   ? 		C 		-0.17214
C 1.0  		0.9888669053451418 		0.3646912882356636  0.5894428675984934 		Uiso   ? 		C 		-0.17148
C 1.0  		0.4875635952515545 		0.8622652471578418  0.5892643567361074 		Uiso   ? 		C 		-0.17148
C 1.0  		0.23848219332956475 		0.11325450662646819  0.5876577589746336 		Uiso   ? 		C 		-0.17148
C 1.0  		0.7364487155329439 		0.6088656491426419  0.5873007372498616 		Uiso   ? 		C 		-0.17148
C 1.0  		0.7350747440487407 		0.11502104139187237  0.5905139327728093 		Uiso   ? 		C 		-0.17148
C 1.0  		0.4887412850951574 		0.3599805288612525  0.5894428675984934 		Uiso   ? 		C 		-0.17148
C 1.0  		0.2408375730167703 		0.6106321839080461  0.5858726503507738 		Uiso   ? 		C 		-0.17148
C 1.0  		0.9861189623767352 		0.8620689655172415  0.5860511612131598 		Uiso   ? 		C 		-0.17148
C 1.0  		0.08852301991080962 		0.16546542302619183  0.3502383120012853 		Uiso   ? 		C 		0.62743
C 1.0  		0.5833490358645814 		0.6616654104641668  0.344882986129706 		Uiso   ? 		C 		0.62743
C 1.0  		0.3336787890207901 		0.9156538534011683  0.3530944857994609 		Uiso   ? 		C 		0.62743
C 1.0  		0.8377300420827838 		0.412976571823378  0.3457755404416359 		Uiso   ? 		C 		0.62743
C 1.0  		0.8371411971609822 		0.9129059104327618  0.3455970295792499 		Uiso   ? 		C 		0.62743
C 1.0  		0.5849192889893852 		0.16036210037057974  0.34863171423981154 		Uiso   ? 		C 		0.62743
C 1.0  		0.33505276050499344 		0.41631335971358585  0.35363001838661884 		Uiso   ? 		C 		0.62743
C 1.0  		0.0828308523333961 		0.6661798881979776  0.34827469251503956 		Uiso   ? 		C 		0.62743
C 1.0  		0.08597135858300357 		0.16801708435399787  0.6610257234152699 		Uiso   ? 		C 		0.62920
C 1.0  		0.5864895421141888 		0.6659836065573771  0.6615612560024278 		Uiso   ? 		C 		0.62920
C 1.0  		0.33681929527039756 		0.9142798819169652  0.66013316910334 		Uiso   ? 		C 		0.62920
C 1.0  		0.8402817034105898 		0.4178836128383896  0.6588835930666381 		Uiso   ? 		C 		0.62920
C 1.0  		0.8389077319263865 		0.9182055147289744  0.6619182777271998 		Uiso   ? 		C 		0.62920
C 1.0  		0.5864895421141888 		0.1644840148231895  0.6635248754886736 		Uiso   ? 		C 		0.62920
C 1.0  		0.3366230136297972 		0.41258400854217697  0.6590621039290242 		Uiso   ? 		C 		0.62920
C 1.0  		0.08577507694240308 		0.6661798881979776  0.6578125278923223 		Uiso   ? 		C 		0.62920
C 1.0  		0.10913259217385843 		0.14544469568494442  0.3545225726985487 		Uiso   ? 		C 		-0.17096
C 1.0  		0.6035660448464293 		0.6412521198417185  0.3491672468269694 		Uiso   ? 		C 		-0.17096
C 1.0  		0.35468092456503986 		0.8946517178569185  0.3541655509737768 		Uiso   ? 		C 		-0.17096
C 1.0  		0.8577507694240313 		0.3917781546385278  0.3502383120012853 		Uiso   ? 		C 		-0.17096
C 1.0  		0.8567693612210289 		0.8917074932479117  0.35041682286367126 		Uiso   ? 		C 		-0.17096
C 1.0  		0.605136297971233 		0.1399488097481314  0.352380442349917 		Uiso   ? 		C 		-0.17096
C 1.0  		0.3562511776898436 		0.3968814772941398  0.35862832253342614 		Uiso   ? 		C 		-0.17096
C 1.0  		0.10344042459644491 		0.6461591608567301  0.352558953212303 		Uiso   ? 		C 		-0.17096
C 1.0  		0.10658093084605239 		0.14780007537215  0.6647744515253754 		Uiso   ? 		C 		-0.17270
C 1.0  		0.6065102694554362 		0.6447851893725269  0.6653099841125333 		Uiso   ? 		C 		-0.17270
C 1.0  		0.35585861440864264 		0.892688901450914  0.6658455166996912 		Uiso   ? 		C 		-0.17270
C 1.0  		0.8606949940330382 		0.3978628854971422  0.6653099841125333 		Uiso   ? 		C 		-0.17270
C 1.0  		0.8595173041894353 		0.897792224106526  0.6656670058373052 		Uiso   ? 		C 		-0.17270
C 1.0  		0.6074916776584386 		0.1444632874819421  0.6645959406629893 		Uiso   ? 		C 		-0.17270
C 1.0  		0.35664374097104456 		0.39197443627912826  0.6629893429015156 		Uiso   ? 		C 		-0.17270
C 1.0  		0.10638464920545189 		0.6453740342943283  0.659597636516182 		Uiso   ? 		C 		-0.17270
C 1.0  		0.92056089441618 		0.08224200741159475  0.1988611006979775 		Uiso   ? 		C 		0.62479
C 1.0  		0.41690220463538724 		0.5811899378179762  0.1993966332851354 		Uiso   ? 		C 		0.62479
C 1.0  		0.1709613089630048 		0.8306639030211671  0.20260982880808298 		Uiso   ? 		C 		0.62479
C 1.0  		0.6704980842911877 		0.3334825073801897  0.19779003552366164 		Uiso   ? 		C 		0.62479
C 1.0  		0.6695166760881854 		0.8332155643489731  0.19975365500990735 		Uiso   ? 		C 		0.62479
C 1.0  		0.4190613026819923 		0.08400854217699893  0.1988611006979775 		Uiso   ? 		C 		0.62479
C 1.0  		0.16644683122919413 		0.33210853589598643  0.2038594048447848 		Uiso   ? 		C 		0.62479
C 1.0  		0.9172241065259721 		0.5835453175051818  0.19993216587229337 		Uiso   ? 		C 		0.62479
C 1.0  		0.9187943596507757 		0.08322341561459708  0.5017940341669791 		Uiso   ? 		C 		0.62487
C 1.0  		0.4165096413541862 		0.5855081339111865  0.5041146753779967 		Uiso   ? 		C 		0.62487
C 1.0  		0.16566170466679223 		0.8349820991143772  0.5044716971027687 		Uiso   ? 		C 		0.62487
C 1.0  		0.6655910432761761 		0.33642673198919665  0.5050072296899267 		Uiso   ? 		C 		0.62487
C 1.0  		0.6644133534325734 		0.8365523522391809  0.5044716971027687 		Uiso   ? 		C 		0.62487
C 1.0  		0.4190613026819923 		0.08577507694240312  0.5060782948642425 		Uiso   ? 		C 		0.62487
C 1.0  		0.16703567615099552 		0.3383895483952013  0.5062568057266285 		Uiso   ? 		C 		0.62487
C 1.0  		0.9136910369951637 		0.5823676276615791  0.5003659472678913 		Uiso   ? 		C 		0.62487
C 1.0  		0.9185980780101752 		0.08911186483261102  0.8136525107552794 		Uiso   ? 		C 		0.63030
C 1.0  		0.4163133597135858 		0.5853118522705861  0.8138310216176655 		Uiso   ? 		C 		0.63030
C 1.0  		0.16762452107279688 		0.8387114502857861  0.8136525107552794 		Uiso   ? 		C 		0.63030
C 1.0  		0.6683389862445827 		0.33780070347339997  0.8188293257644728 		Uiso   ? 		C 		0.63030
C 1.0  		0.6653947616355758 		0.8398891401293889  0.8161516628286832 		Uiso   ? 		C 		0.63030
C 1.0  		0.42082783744739655 		0.0881304566296087  0.8182937931773149 		Uiso   ? 		C 		0.63030
C 1.0  		0.17174643552540667 		0.3376044218327995  0.8157946411039113 		Uiso   ? 		C 		0.63030
C 1.0  		0.9180092330883738 		0.585704415551787  0.8150805976543672 		Uiso   ? 		C 		0.63030
C 1.0  		0.9009327303561334 		0.10344042459644495  0.20225280708331103 		Uiso   ? 		C 		-0.00691
C 1.0  		0.3966851956535393 		0.6023883550028265  0.202431317945697 		Uiso   ? 		C 		-0.00691
C 1.0  		0.150351736699956 		0.8512734752842158  0.20564451346864457 		Uiso   ? 		C 		-0.00691
C 1.0  		0.6492996671063376 		0.35389579800263804  0.1986825898355915 		Uiso   ? 		C 		-0.00691
C 1.0  		0.6491033854657371 		0.8534325733308209  0.20278833967046894 		Uiso   ? 		C 		-0.00691
C 1.0  		0.3988442937001445 		0.10559952264305007  0.20207429622092504 		Uiso   ? 		C 		-0.00691
C 1.0  		0.14603354060674578 		0.35291438979963574  0.20885770899159214 		Uiso   ? 		C 		-0.00691
C 1.0  		0.8970070975441242 		0.6045474530494316  0.20189578535853908 		Uiso   ? 		C 		-0.00691
C 1.0  		0.1481926386533509 		0.359784247220652  0.5119691533229798 		Uiso   ? 		C 		-0.00850
C 1.0  		0.644392626091326 		0.8575544877834307  0.5080419143504883 		Uiso   ? 		C 		-0.00850
C 1.0  		0.4002182651843478 		0.10716977576785379  0.5105410664238919 		Uiso   ? 		C 		-0.00850
C 1.0  		0.8938665912945167 		0.602977199924628  0.5066138274514005 		Uiso   ? 		C 		-0.00850
C 1.0  		0.8989699139501288 		0.10422555115884682  0.5044716971027687 		Uiso   ? 		C 		-0.00850
C 1.0  		0.6455703159349288 		0.35762514917404686  0.5082204252128742 		Uiso   ? 		C 		-0.00850
C 1.0  		0.39747032221594114 		0.6076879592990391  0.5062568057266285 		Uiso   ? 		C 		-0.00850
C 1.0  		0.14564097732554482 		0.8553953897368256  0.5087559578000321 		Uiso   ? 		C 		-0.00850
C 1.0  		0.8981847873877269 		0.11011400037686077  0.8143665542048235 		Uiso   ? 		C 		-0.00635
C 1.0  		0.39550750580993654 		0.605136297971233  0.8157946411039113 		Uiso   ? 		C 		-0.00635
C 1.0  		0.14721123045034856 		0.8589284592676341  0.8152591085167533 		Uiso   ? 		C 		-0.00635
C 1.0  		0.6481219772627348 		0.35841027573644874  0.8202574126635606 		Uiso   ? 		C 		-0.00635
C 1.0  		0.6451777526537278 		0.8604987123924378  0.8193648583516308 		Uiso   ? 		C 		-0.00635
C 1.0  		0.40100339174674965 		0.10913259217385844  0.8232920973241222 		Uiso   ? 		C 		-0.00635
C 1.0  		0.15035173669995602 		0.35762514917404686  0.8181152823149289 		Uiso   ? 		C 		-0.00635
C 1.0  		0.8966145342629231 		0.6059214245336348  0.8152591085167533 		Uiso   ? 		C 		-0.00635
C 1.0  		0.9164389799635702 		0.33151969097418504  0.34934575768935544 		Uiso   ? 		C 		0.62667
C 1.0  		0.4153319515105835 		0.8328230010677722  0.3502383120012853 		Uiso   ? 		C 		0.62667
C 1.0  		0.16860592927579926 		0.08459738709880033  0.35005980113889934 		Uiso   ? 		C 		0.62667
C 1.0  		0.663431945229571 		0.5813862194585768  0.3502383120012853 		Uiso   ? 		C 		0.62667
C 1.0  		0.6667687331197789 		0.08126059920859242  0.35077384458844324 		Uiso   ? 		C 		0.62667
C 1.0  		0.41572451479178446 		0.3362304503485962  0.3480961816526536 		Uiso   ? 		C 		0.62667
C 1.0  		0.1609509452923811 		0.585704415551787  0.3436334100930042 		Uiso   ? 		C 		0.62667
C 1.0  		0.9160464166823692 		0.8296824948181648  0.3502383120012853 		Uiso   ? 		C 		0.62667
C 1.0  		0.9203646127755795 		0.3385858300358018  0.6624538103143577 		Uiso   ? 		C 		0.62634
C 1.0  		0.4165096413541862 		0.8332155643489731  0.660490190828112 		Uiso   ? 		C 		0.62634
C 1.0  		0.16585798630739276 		0.08734533006720684  0.6587050822042522 		Uiso   ? 		C 		0.62634
C 1.0  		0.6681427046039822 		0.585704415551787  0.66013316910334 		Uiso   ? 		C 		0.62634
C 1.0  		0.6681427046039822 		0.08400854217699893  0.659776147378568 		Uiso   ? 		C 		0.62634
C 1.0  		0.4176873311977891 		0.33053828277118275  0.660668701690498 		Uiso   ? 		C 		0.62634
C 1.0  		0.1654654230261918 		0.5853118522705861  0.652635712883129 		Uiso   ? 		C 		0.62634
C 1.0  		0.9191869229319767 		0.8379263237233843  0.6578125278923223 		Uiso   ? 		C 		0.62634
C 1.0  		0.8960256893411219 		0.35291438979963574  0.3498812902765133 		Uiso   ? 		C 		-0.01017
C 1.0  		0.39491866088813515 		0.8540214182526223  0.352380442349917 		Uiso   ? 		C 		-0.01017
C 1.0  		0.14819263865335092 		0.10520695936184914  0.352380442349917 		Uiso   ? 		C 		-0.01017
C 1.0  		0.6426260913259217 		0.6016032284404246  0.3513093771756012 		Uiso   ? 		C 		-0.01017
C 1.0  		0.6459628792161297 		0.10108504490923938  0.3532729966618469 		Uiso   ? 		C 		-0.01017
C 1.0  		0.3959000690911375 		0.3574288675334464  0.3538085292490048 		Uiso   ? 		C 		-0.01017
C 1.0  		0.14171534451353557 		0.6067065510960368  0.34934575768935544 		Uiso   ? 		C 		-0.01017
C 1.0  		0.8956331260599208 		0.850488348721814  0.352558953212303 		Uiso   ? 		C 		-0.01017
C 1.0  		0.9001476037937317 		0.3591954022988506  0.6662025384244632 		Uiso   ? 		C 		-0.00883
C 1.0  		0.3962926323723384 		0.8532362916902206  0.6637033863510595 		Uiso   ? 		C 		-0.00883
C 1.0  		0.1462298222473463 		0.10854374725205705  0.6640604080758314 		Uiso   ? 		C 		-0.00883
C 1.0  		0.647336850700333 		0.6057251428930344  0.6640604080758314 		Uiso   ? 		C 		-0.00883
C 1.0  		0.6481219772627348 		0.1054032410024496  0.6629893429015156 		Uiso   ? 		C 		-0.00883
C 1.0  		0.3966851956535394 		0.3507552917530306  0.6615612560024278 		Uiso   ? 		C 		-0.00883
C 1.0  		0.14465956912254252 		0.6053325796118335  0.6547778432317607 		Uiso   ? 		C 		-0.00883
C 1.0  		0.8993624772313297 		0.858535895986433  0.6629893429015156 		Uiso   ? 		C 		-0.00883
C 1.0  		0.08597135858300357 		0.33387507066139066  0.3172138024598797 		Uiso   ? 		C 		0.63052
C 1.0  		0.5841341624269832 		0.8326267194271717  0.3172138024598797 		Uiso   ? 		C 		0.63052
C 1.0  		0.3385858300358018 		0.08341969725519754  0.31310805262500224 		Uiso   ? 		C 		0.63052
C 1.0  		0.8314490295835689 		0.5835453175051818  0.3156072046984059 		Uiso   ? 		C 		0.63052
C 1.0  		0.8365523522391809 		0.08381226053639847  0.31685678073510776 		Uiso   ? 		C 		0.63052
C 1.0  		0.5851155706299855 		0.3323048175365869  0.3191774219461255 		Uiso   ? 		C 		0.63052
C 1.0  		0.3321085358959864 		0.5841341624269832  0.314893161248862 		Uiso   ? 		C 		0.63052
C 1.0  		0.0849899503800012 		0.8357672256767792  0.31525018297363394 		Uiso   ? 		C 		0.63052
C 1.0  		0.08832673827020915 		0.3358378870673953  0.6244309966261448 		Uiso   ? 		C 		0.62828
C 1.0  		0.5866858237547893 		0.8351783807549777  0.6278227030114782 		Uiso   ? 		C 		0.62828
C 1.0  		0.3370155769109981 		0.08440110545819987  0.6280012138738642 		Uiso   ? 		C 		0.62828
C 1.0  		0.8383188870045851 		0.5862932604735884  0.622110355415127 		Uiso   ? 		C 		0.62828
C 1.0  		0.8385151686451857 		0.08891558319201057  0.6276441921490923 		Uiso   ? 		C 		0.62828
C 1.0  		0.5880597952389925 		0.3328936624583883  0.6280012138738642 		Uiso   ? 		C 		0.62828
C 1.0  		0.3381932667546008 		0.5831527542239809  0.6269301486995484 		Uiso   ? 		C 		0.62828
C 1.0  		0.08636392186420445 		0.8377300420827838  0.6240739749013728 		Uiso   ? 		C 		0.62828
C 1.0  		0.1063846492054519 		0.35448464292443943  0.314893161248862 		Uiso   ? 		C 		-0.00634
C 1.0  		0.605136297971233 		0.8526474467684192  0.31382209607454614 		Uiso   ? 		C 		-0.00634
C 1.0  		0.35821399409584825 		0.10442183279944728  0.30846677020296687 		Uiso   ? 		C 		-0.00634
C 1.0  		0.8528437284090196 		0.6031734815652283  0.3120369874506864 		Uiso   ? 		C 		-0.00634
C 1.0  		0.8583396143458326 		0.10226273475284217  0.3127510309002303 		Uiso   ? 		C 		-0.00634
C 1.0  		0.6063139878148358 		0.3523255448778343  0.31525018297363394 		Uiso   ? 		C 		-0.00634
C 1.0  		0.3527181081590352 		0.6047437346900321  0.3127510309002303 		Uiso   ? 		C 		-0.00634
C 1.0  		0.10658093084605234 		0.8553953897368256  0.31060890055159857 		Uiso   ? 		C 		-0.00634
C 1.0  		0.10991771873626027 		0.3550734878462408  0.6199682250664953 		Uiso   ? 		C 		-0.00428
C 1.0  		0.6072953960178381 		0.8557879530180266  0.6256805726628466 		Uiso   ? 		C 		-0.00428
C 1.0  		0.3586065573770492 		0.10402926951824636  0.6262161052500045 		Uiso   ? 		C 		-0.00428
C 1.0  		0.858535895986433 		0.6065102694554362  0.6203252467912673 		Uiso   ? 		C 		-0.00428
C 1.0  		0.858535895986433 		0.10932887381445891  0.6206822685160392 		Uiso   ? 		C 		-0.00428
C 1.0  		0.6094544940644432 		0.35330695308083665  0.6251450400756886 		Uiso   ? 		C 		-0.00428
C 1.0  		0.35958796558005146 		0.6025846366434269  0.6212178011031971 		Uiso   ? 		C 		-0.00428
C 1.0  		0.10697349412725327 		0.8575544877834307  0.6188971598921795 		Uiso   ? 		C 		-0.00428
C 1.0  		0.9180092330883738 		0.4139579800263803  0.16155233045930847 		Uiso   ? 		C 		0.63842
C 1.0  		0.420631555806796 		0.914672445198166  0.16030275442260664 		Uiso   ? 		C 		0.63842
C 1.0  		0.167231957791596 		0.16487657810439044  0.16190935218408042 		Uiso   ? 		C 		0.63842
C 1.0  		0.6667687331197789 		0.6640207901513725  0.1656580802941859 		Uiso   ? 		C 		0.63842
C 1.0  		0.6687315495257836 		0.1638951699013881  0.1656580802941859 		Uiso   ? 		C 		0.63842
C 1.0  		0.4169022046353873 		0.4131728534639784  0.1588746675235188 		Uiso   ? 		C 		0.63842
C 1.0  		0.1676245210727969 		0.661272847182966  0.15780360234920296 		Uiso   ? 		C 		0.63842
C 1.0  		0.9207571760567803 		0.9140836002763646  0.157446580624431 		Uiso   ? 		C 		0.63842
C 1.0  		0.16801708435399787 		0.16762452107279693  0.47037612238704724 		Uiso   ? 		C 		0.63438
C 1.0  		0.6667687331197789 		0.6669650147603794  0.46966207893750334 		Uiso   ? 		C 		0.63438
C 1.0  		0.41513566986998307 		0.9166352616041706  0.472696763598065 		Uiso   ? 		C 		0.63438
C 1.0  		0.9176166698071729 		0.41336913510457884  0.47109016583659113 		Uiso   ? 		C 		0.63438
C 1.0  		0.917224106525972 		0.9138873186357641  0.4701976115246613 		Uiso   ? 		C 		0.63438
C 1.0  		0.6695166760881854 		0.16605426794799322  0.46966207893750334 		Uiso   ? 		C 		0.63438
C 1.0  		0.4167059229947868 		0.415528233151184  0.47055463324943325 		Uiso   ? 		C 		0.63438
C 1.0  		0.16860592927579923 		0.6648059167137743  0.46984058979988935 		Uiso   ? 		C 		0.63438
C 1.0  		0.1695873374788016 		0.167231957791596  0.7715239472321891 		Uiso   ? 		C 		0.63085
C 1.0  		0.6659836065573771 		0.6699092393693864  0.7745586318927508 		Uiso   ? 		C 		0.63085
C 1.0  		0.4147431065887821 		0.9195794862131775  0.7763437405166105 		Uiso   ? 		C 		0.63085
C 1.0  		0.9193832045725772 		0.42004271088499473  0.7738445884432068 		Uiso   ? 		C 		0.63085
C 1.0  		0.9148687268387663 		0.9187943596507757  0.7767007622413824 		Uiso   ? 		C 		0.63085
C 1.0  		0.6681427046039822 		0.1705687456818039  0.7734875667184349 		Uiso   ? 		C 		0.63085
C 1.0  		0.4194538659631933 		0.41631335971358585  0.7692033060211715 		Uiso   ? 		C 		0.63085
C 1.0  		0.16703567615099552 		0.6701055210099869  0.7725950124065051 		Uiso   ? 		C 		0.63085
C 1.0  		0.14681866716914768 		0.14426700584134164  0.15923168924829076 		Uiso   ? 		C 		-0.17459
C 1.0  		0.6459628792161297 		0.6434112178883237  0.16458701511987006 		Uiso   ? 		C 		-0.17459
C 1.0  		0.4000219835437472 		0.8938665912945167  0.15780360234920296 		Uiso   ? 		C 		-0.17459
C 1.0  		0.8995587588719303 		0.39236699956032917  0.15494742855102733 		Uiso   ? 		C 		-0.17459
C 1.0  		0.9017178569185353 		0.892688901450914  0.15334083078955354 		Uiso   ? 		C 		-0.17459
C 1.0  		0.647336850700333 		0.14426700584134164  0.16173084132169444 		Uiso   ? 		C 		-0.17459
C 1.0  		0.3968814772941398 		0.39236699956032917  0.1536978525143255 		Uiso   ? 		C 		-0.17459
C 1.0  		0.1472112304503486 		0.6418409647635199  0.15102018957853586 		Uiso   ? 		C 		-0.17459
C 1.0  		0.14780007537215 		0.14740751209094907  0.4682339920384156 		Uiso   ? 		C 		-0.17042
C 1.0  		0.646551724137931 		0.6457665975755292  0.46841250290080155 		Uiso   ? 		C 		-0.17042
C 1.0  		0.3943298159663337 		0.8962219709817223  0.46841250290080155 		Uiso   ? 		C 		-0.17042
C 1.0  		0.8975959424659257 		0.3929558444821305  0.4657348399650119 		Uiso   ? 		C 		-0.17042
C 1.0  		0.8966145342629231 		0.8934740280133158  0.4651993073778539 		Uiso   ? 		C 		-0.17042
C 1.0  		0.6489071038251366 		0.14642610388794675  0.46448526392831 		Uiso   ? 		C 		-0.17042
C 1.0  		0.39707775893474034 		0.39432981596633376  0.4664488834145558 		Uiso   ? 		C 		-0.17042
C 1.0  		0.1487814835751523 		0.6438037811695245  0.4660918616897839 		Uiso   ? 		C 		-0.17042
C 1.0  		0.14878148357515233 		0.14642610388794675  0.7702743711954874 		Uiso   ? 		C 		-0.16787
C 1.0  		0.6467480057785315 		0.6483182589033353  0.772416501544119 		Uiso   ? 		C 		-0.16787
C 1.0  		0.3951149425287356 		0.8981847873877269  0.7722379906817329 		Uiso   ? 		C 		-0.16787
C 1.0  		0.8987736323095283 		0.39962942026254633  0.7692033060211715 		Uiso   ? 		C 		-0.16787
C 1.0  		0.8942591545757177 		0.8983810690283274  0.7725950124065051 		Uiso   ? 		C 		-0.16787
C 1.0  		0.6481219772627348 		0.14976289177815466  0.7706313929202593 		Uiso   ? 		C 		-0.16787
C 1.0  		0.3998257019031468 		0.39511494252873564  0.764740534461522 		Uiso   ? 		C 		-0.16787
C 1.0  		0.14622982224734626 		0.65028107530934  0.7670611756725396 		Uiso   ? 		C 		-0.16787
C 1.0  		0.9180092330883738 		0.16114722693298159  0.31382209607454614 		Uiso   ? 		C 		0.63395
C 1.0  		0.41199516362037564 		0.6653947616355758  0.315071672111248 		Uiso   ? 		C 		0.63395
C 1.0  		0.16625054958859364 		0.9160464166823692  0.3104303896892126 		Uiso   ? 		C 		0.63395
C 1.0  		0.6677501413227813 		0.41081747377677286  0.3179278459094236 		Uiso   ? 		C 		0.63395
C 1.0  		0.665591043276176 		0.9134947553545631  0.3163212481479498 		Uiso   ? 		C 		0.63395
C 1.0  		0.4169022046353873 		0.16605426794799322  0.31310805262500224 		Uiso   ? 		C 		0.63395
C 1.0  		0.1654654230261918 		0.4167059229947868  0.31685678073510776 		Uiso   ? 		C 		0.63395
C 1.0  		0.9136910369951637 		0.6622542553859683  0.3134650743497742 		Uiso   ? 		C 		0.63395
C 1.0  		0.9178129514477734 		0.16860592927579926  0.6260375943876185 		Uiso   ? 		C 		0.63435
C 1.0  		0.41807989447898997 		0.663824508510772  0.6246095074885307 		Uiso   ? 		C 		0.63435
C 1.0  		0.16840964763519875 		0.9164389799635702  0.623002909727057 		Uiso   ? 		C 		0.63435
C 1.0  		0.6691241128069845 		0.41592079643238494  0.6251450400756886 		Uiso   ? 		C 		0.63435
C 1.0  		0.6695166760881853 		0.9150650084793669  0.6249665292133026 		Uiso   ? 		C 		0.63435
C 1.0  		0.4190613026819923 		0.1621286351359839  0.6253235509380747 		Uiso   ? 		C 		0.63435
C 1.0  		0.17017618240060295 		0.4141542616669807  0.623002909727057 		Uiso   ? 		C 		0.63435
C 1.0  		0.9172241065259721 		0.668927831166384  0.622288866277513 		Uiso   ? 		C 		0.63435
C 1.0  		0.8981847873877269 		0.14034137302933233  0.3104303896892126 		Uiso   ? 		C 		-0.17136
C 1.0  		0.39217071791972863 		0.644392626091326  0.3100733679644407 		Uiso   ? 		C 		-0.17136
C 1.0  		0.1464261038879467 		0.8954368444193205  0.3061461289919492 		Uiso   ? 		C 		-0.17136
C 1.0  		0.647336850700333 		0.3907967464355255  0.3132865634873882 		Uiso   ? 		C 		-0.17136
C 1.0  		0.6449814710131274 		0.892688901450914  0.3132865634873882 		Uiso   ? 		C 		-0.17136
C 1.0  		0.3966851956535394 		0.14505213240374348  0.30882379192773884 		Uiso   ? 		C 		-0.17136
C 1.0  		0.144855850763143 		0.39609635073173793  0.315071672111248 		Uiso   ? 		C 		-0.17136
C 1.0  		0.8932777463727154 		0.6422335280447208  0.3086452810653529 		Uiso   ? 		C 		-0.17136
C 1.0  		0.8973996608253251 		0.1489777652157528  0.6203252467912673 		Uiso   ? 		C 		-0.17185
C 1.0  		0.3980591671377426 		0.6426260913259217  0.6215748228279692 		Uiso   ? 		C 		-0.17185
C 1.0  		0.14897776521575273 		0.8960256893411219  0.6174690729930917 		Uiso   ? 		C 		-0.17185
C 1.0  		0.6485145405439356 		0.39511494252873564  0.622110355415127 		Uiso   ? 		C 		-0.17185
C 1.0  		0.6487108221845362 		0.894847999497519  0.6217533336903551 		Uiso   ? 		C 		-0.17185
C 1.0  		0.39923685698134537 		0.1417153445135356  0.622467377139899 		Uiso   ? 		C 		-0.17185
C 1.0  		0.14956661013755415 		0.3939372526851329  0.6183616273050215 		Uiso   ? 		C 		-0.17185
C 1.0  		0.8960256893411219 		0.6485145405439356  0.6208607793784252 		Uiso   ? 		C 		-0.17185
C 1.0  		0.8383188870045851 		0.16271748005778533  0.1995751441475214 		Uiso   ? 		C 		0.62914
C 1.0  		0.33681929527039756 		0.663824508510772  0.19546939431264393 		Uiso   ? 		C 		0.62914
C 1.0  		0.09146724451981655 		0.9132984737139627  0.1979685463860476 		Uiso   ? 		C 		0.62914
C 1.0  		0.5866858237547893 		0.41336913510457884  0.19850407897320554 		Uiso   ? 		C 		0.62914
C 1.0  		0.5868821053953897 		0.9136910369951637  0.20028918759706532 		Uiso   ? 		C 		0.62914
C 1.0  		0.3385858300358018 		0.16566170466679228  0.1993966332851354 		Uiso   ? 		C 		0.62914
C 1.0  		0.08577507694240309 		0.4151356698699831  0.20421642656955674 		Uiso   ? 		C 		0.62914
C 1.0  		0.836944915520382 		0.6655910432761761  0.20046769845945128 		Uiso   ? 		C 		0.62914
C 1.0  		0.08675648514540542 		0.41729476791658815  0.5076848926257163 		Uiso   ? 		C 		0.62678
C 1.0  		0.5855081339111864 		0.9182055147289744  0.5064353165890145 		Uiso   ? 		C 		0.62678
C 1.0  		0.33937095659820365 		0.16644683122919415  0.5060782948642425 		Uiso   ? 		C 		0.62678
C 1.0  		0.8345895358331763 		0.663824508510772  0.5044716971027687 		Uiso   ? 		C 		0.62678
C 1.0  		0.8389077319263866 		0.16468029646378995  0.5066138274514005 		Uiso   ? 		C 		0.62678
C 1.0  		0.5851155706299855 		0.4178836128383896  0.5100055338367341 		Uiso   ? 		C 		0.62678
C 1.0  		0.3393709565982036 		0.6681427046039822  0.5042931862403828 		Uiso   ? 		C 		0.62678
C 1.0  		0.0849899503800012 		0.914672445198166  0.5071493600385584 		Uiso   ? 		C 		0.62678
C 1.0  		0.09087839959801518 		0.41925758432259286  0.8138310216176655 		Uiso   ? 		C 		0.63566
C 1.0  		0.5849192889893851 		0.9193832045725772  0.8147235759295953 		Uiso   ? 		C 		0.63566
C 1.0  		0.337408140192199 		0.16703567615099554  0.8186508149020869 		Uiso   ? 		C 		0.63566
C 1.0  		0.8363560705985805 		0.6644133534325734  0.8040129241864367 		Uiso   ? 		C 		0.63566
C 1.0  		0.8377300420827838 		0.1684096476351988  0.8120459129938058 		Uiso   ? 		C 		0.63566
C 1.0  		0.5864895421141888 		0.4165096413541863  0.8165086845534552 		Uiso   ? 		C 		0.63566
C 1.0  		0.33407135230199103 		0.6644133534325734  0.8145450650672094 		Uiso   ? 		C 		0.63566
C 1.0  		0.0855787953018026 		0.9170278248853715  0.8140095324800514 		Uiso   ? 		C 		0.63566
C 1.0  		0.8408705483323912 		0.33034200113058226  0.15459040682625538 		Uiso   ? 		C 		0.63239
C 1.0  		0.33976351987940456 		0.8345895358331763  0.16440850425748407 		Uiso   ? 		C 		0.63239
C 1.0  		0.08793417498900824 		0.08224200741159475  0.15637551545011516 		Uiso   ? 		C 		0.63239
C 1.0  		0.5855081339111865 		0.5835453175051818  0.1597672218354487 		Uiso   ? 		C 		0.63239
C 1.0  		0.588256076879593 		0.08322341561459708  0.16012424356022065 		Uiso   ? 		C 		0.63239
C 1.0  		0.33564160542679483 		0.33387507066139066  0.1581606240739749 		Uiso   ? 		C 		0.63239
C 1.0  		0.08714904842660634 		0.5833490358645814  0.16083828700976455 		Uiso   ? 		C 		0.63239
C 1.0  		0.8396928584887884 		0.8347858174737769  0.16083828700976455 		Uiso   ? 		C 		0.63239
C 1.0  		0.8357672256767792 		0.33426763394259157  0.472696763598065 		Uiso   ? 		C 		0.62692
C 1.0  		0.33407135230199103 		0.83615978895798  0.4700191006622753 		Uiso   ? 		C 		0.62692
C 1.0  		0.09127096287921614 		0.08400854217699893  0.4709116549742052 		Uiso   ? 		C 		0.62692
C 1.0  		0.5864895421141888 		0.5855081339111865  0.4734108070476089 		Uiso   ? 		C 		0.62692
C 1.0  		0.5870783870359902 		0.08832673827020916  0.4687695246255735 		Uiso   ? 		C 		0.62692
C 1.0  		0.3366230136297972 		0.334463915583192  0.47180420928613503 		Uiso   ? 		C 		0.62692
C 1.0  		0.08498995038000122 		0.5859006971923875  0.47144718756136317 		Uiso   ? 		C 		0.62692
C 1.0  		0.8357672256767792 		0.8334118459895736  0.4707331441118192 		Uiso   ? 		C 		0.62692
C 1.0  		0.8363560705985805 		0.33897839331700275  0.7733090558560488 		Uiso   ? 		C 		0.62791
C 1.0  		0.3354453237861943 		0.8351783807549777  0.7745586318927508 		Uiso   ? 		C 		0.62791
C 1.0  		0.08636392186420451 		0.08695276678600591  0.772416501544119 		Uiso   ? 		C 		0.62791
C 1.0  		0.5864895421141888 		0.5880597952389925  0.7781288491404702 		Uiso   ? 		C 		0.62791
C 1.0  		0.5878635135983921 		0.08773789334840777  0.7722379906817329 		Uiso   ? 		C 		0.62791
C 1.0  		0.3379969851140004 		0.3362304503485962  0.7736660775808207 		Uiso   ? 		C 		0.62791
C 1.0  		0.08440110545819983 		0.5890412034419948  0.7697388386083294 		Uiso   ? 		C 		0.62791
C 1.0  		0.833608127630174 		0.8371411971609823  0.7759867187918386 		Uiso   ? 		C 		0.62791
C 1.0  		0.10599208592425098 		0.39452609760693425  0.20707260036773237 		Uiso   ? 		C 		-0.16648
C 1.0  		0.6072953960178381 		0.8932777463727154  0.20439493743194276 		Uiso   ? 		C 		-0.16648
C 1.0  		0.3589991206582501 		0.14583725896614536  0.20457344829432872 		Uiso   ? 		C 		-0.16648
C 1.0  		0.8569656428616292 		0.6449814710131274  0.20493047001910067 		Uiso   ? 		C 		-0.16648
C 1.0  		0.8595173041894353 		0.14308931599773883  0.20207429622092504 		Uiso   ? 		C 		-0.16648
C 1.0  		0.6069028327366371 		0.3929558444821305  0.2001106767346793 		Uiso   ? 		C 		-0.16648
C 1.0  		0.35625117768984355 		0.6434112178883237  0.20207429622092504 		Uiso   ? 		C 		-0.16648
C 1.0  		0.11168425350166442 		0.8924926198103135  0.2031453613952409 		Uiso   ? 		C 		-0.16648
C 1.0  		0.10795490233025562 		0.3984517304189435  0.5142897945339974 		Uiso   ? 		C 		-0.16996
C 1.0  		0.6055288612524339 		0.8973996608253251  0.5094700012495761 		Uiso   ? 		C 		-0.16996
C 1.0  		0.3613545003454557 		0.14760379373154953  0.5119691533229798 		Uiso   ? 		C 		-0.16996
C 1.0  		0.8551991080962252 		0.643607499528924  0.5082204252128742 		Uiso   ? 		C 		-0.16996
C 1.0  		0.8593210225488349 		0.1438744425601407  0.5080419143504883 		Uiso   ? 		C 		-0.16996
C 1.0  		0.6059214245336348 		0.39805916713774264  0.5119691533229798 		Uiso   ? 		C 		-0.16996
C 1.0  		0.36037309214245333 		0.6491033854657371  0.51018404469912 		Uiso   ? 		C 		-0.16996
C 1.0  		0.10559952264305002 		0.8942591545757177  0.51018404469912 		Uiso   ? 		C 		-0.16996
C 1.0  		0.11089912693926257 		0.39805916713774264  0.8182937931773149 		Uiso   ? 		C 		-0.16966
C 1.0  		0.6061177061742353 		0.900343885434332  0.8200789018011747 		Uiso   ? 		C 		-0.16966
C 1.0  		0.3588028390176497 		0.14780007537215  0.8231135864617362 		Uiso   ? 		C 		-0.16966
C 1.0  		0.8561805162992275 		0.6441963444507255  0.8086542066084722 		Uiso   ? 		C 		-0.16966
C 1.0  		0.8583396143458326 		0.1483889202939514  0.8145450650672094 		Uiso   ? 		C 		-0.16966
C 1.0  		0.6072953960178381 		0.3968814772941398  0.8206144343883327 		Uiso   ? 		C 		-0.16966
C 1.0  		0.35526976948684125 		0.6441963444507255  0.8161516628286832 		Uiso   ? 		C 		-0.16966
C 1.0  		0.10756233904905467 		0.8979885057471265  0.8172227280029991 		Uiso   ? 		C 		-0.16966
C 1.0  		0.8612838389548395 		0.3509515733936311  0.15351934165193953 		Uiso   ? 		C 		-0.00762
C 1.0  		0.3599805288612524 		0.8550028264556246  0.16173084132169444 		Uiso   ? 		C 		-0.00762
C 1.0  		0.10697349412725332 		0.10402926951824636  0.15583998286295722 		Uiso   ? 		C 		-0.00762
C 1.0  		0.6059214245336348 		0.6041548897682306  0.16065977614737859 		Uiso   ? 		C 		-0.00762
C 1.0  		0.6090619307832423 		0.10344042459644495  0.1583391349363609 		Uiso   ? 		C 		-0.00762
C 1.0  		0.3564474593304441 		0.35350323472143713  0.15334083078955354 		Uiso   ? 		C 		-0.00762
C 1.0  		0.10716977576785375 		0.6037623264870298  0.15637551545011516 		Uiso   ? 		C 		-0.00762
C 1.0  		0.8614801205954401 		0.8538251366120219  0.15708955889965906 		Uiso   ? 		C 		-0.00762
C 1.0  		0.8569656428616292 		0.3540920796432385  0.4682339920384156 		Uiso   ? 		C 		-0.00592
C 1.0  		0.3542883612838389 		0.8567693612210289  0.4673414377264857 		Uiso   ? 		C 		-0.00592
C 1.0  		0.11129169022046353 		0.10501067772124868  0.46984058979988935 		Uiso   ? 		C 		-0.00592
C 1.0  		0.6074916776584386 		0.6059214245336348  0.4701976115246613 		Uiso   ? 		C 		-0.00592
C 1.0  		0.6084730858614409 		0.10795490233025565  0.465020796515468 		Uiso   ? 		C 		-0.00592
C 1.0  		0.35684002261164505 		0.35546605112744173  0.46841250290080155 		Uiso   ? 		C 		-0.00592
C 1.0  		0.10618836756485142 		0.6063139878148358  0.46984058979988935 		Uiso   ? 		C 		-0.00592
C 1.0  		0.8565730795804284 		0.8536288549714215  0.4682339920384156 		Uiso   ? 		C 		-0.00592
C 1.0  		0.8573582061428303 		0.3589991206582501  0.7686677734340135 		Uiso   ? 		C 		-0.00936
C 1.0  		0.35585861440864264 		0.8559842346586269  0.773130544993663 		Uiso   ? 		C 		-0.00936
C 1.0  		0.1077586206896552 		0.10677721248665287  0.7700958603331013 		Uiso   ? 		C 		-0.00936
C 1.0  		0.6074916776584386 		0.6078842409396396  0.7750941644799085 		Uiso   ? 		C 		-0.00936
C 1.0  		0.6084730858614409 		0.10815118397085612  0.7693818168835573 		Uiso   ? 		C 		-0.00936
C 1.0  		0.3589991206582501 		0.3562511776898436  0.7684892625716275 		Uiso   ? 		C 		-0.00936
C 1.0  		0.10501067772124864 		0.6102396206268451  0.7668826648101538 		Uiso   ? 		C 		-0.00936
C 1.0  		0.8546102631744238 		0.8573582061428303  0.7747371427551367 		Uiso   ? 		C 		-0.00936
H 1.0  		0.984744990892532 		0.35271810815903526  0.21653367607418914 		Uiso   ? 		H 		0.13393
H 1.0  		0.47539413353432575 		0.8532362916902206  0.22242453453292635 		Uiso   ? 		H 		0.13393
H 1.0  		0.21394698825450664 		0.10913259217385844  0.21938984987236476 		Uiso   ? 		H 		0.13393
H 1.0  		0.7091655674894793 		0.6159317882042585  0.22242453453292635 		Uiso   ? 		H 		0.13393
H 1.0  		0.7407669116261542 		0.09853338358143333  0.2159981434870312 		Uiso   ? 		H 		0.13393
H 1.0  		0.46989824759751275 		0.4174910495571886  0.2497366964779807 		Uiso   ? 		H 		0.13393
H 1.0  		0.22101312731612333 		0.6047437346900321  0.2147485674503294 		Uiso   ? 		H 		0.13393
H 1.0  		0.9753234721437097 		0.8536288549714215  0.21635516521180315 		Uiso   ? 		H 		0.13393
H 1.0  		0.9798379498775203 		0.351344136674832  0.5301772612863493 		Uiso   ? 		H 		0.13310
H 1.0  		0.47696438665912944 		0.8520586018466177  0.5285706635248755 		Uiso   ? 		H 		0.13310
H 1.0  		0.21630236794171223 		0.10697349412725332  0.5291061961120335 		Uiso   ? 		H 		0.13310
H 1.0  		0.733111927642736 		0.599247848753219  0.525178957139542 		Uiso   ? 		H 		0.13310
H 1.0  		0.7189796495195026 		0.10893631053325797  0.5312483264606651 		Uiso   ? 		H 		0.13310
H 1.0  		0.47774951322153136 		0.35448464292443943  0.5280351309377176 		Uiso   ? 		H 		0.13310
H 1.0  		0.22042428239432196 		0.6092582124238428  0.5273210874881737 		Uiso   ? 		H 		0.13310
H 1.0  		0.9843524276113309 		0.8518623202060173  0.525178957139542 		Uiso   ? 		H 		0.13310
H 1.0  		0.004318196093210217 		0.14721123045034862  0.44824077545118624 		Uiso   ? 		H 		0.11630
H 1.0  		0.48815244017335596 		0.6547955530431505  0.4462771559649405 		Uiso   ? 		H 		0.11630
H 1.0  		0.24672602223478418 		0.9013252936373343  0.44574162337778256 		Uiso   ? 		H 		0.11630
H 1.0  		0.7250643803781169 		0.32641636831857296  0.41075349435013125 		Uiso   ? 		H 		0.11630
H 1.0  		0.7505809936561774 		0.8973996608253251  0.44716971027687036 		Uiso   ? 		H 		0.11630
H 1.0  		0.4958074241567741 		0.1483889202939514  0.4502043949374319 		Uiso   ? 		H 		0.11630
H 1.0  		0.25791407574901076 		0.3964889140129389  0.44931184062550206 		Uiso   ? 		H 		0.11630
H 1.0  		0.9937739463601533 		0.6516550467935431  0.44931184062550206 		Uiso   ? 		H 		0.11630
H 1.0  		0.9886706237045412 		0.14583725896614536  0.7568860565165391 		Uiso   ? 		H 		0.11625
H 1.0  		0.49796652220337917 		0.65028107530934  0.7581356325532409 		Uiso   ? 		H 		0.11625
H 1.0  		0.2533995980152 		0.8968108159035237  0.757064567378925 		Uiso   ? 		H 		0.11625
H 1.0  		0.7409631932667546 		0.40394761635575654  0.7597422303147148 		Uiso   ? 		H 		0.11625
H 1.0  		0.7429260096727593 		0.900736448715533  0.7592066977275568 		Uiso   ? 		H 		0.11625
H 1.0  		0.4930594811883676 		0.15192198982475977  0.7606347846266446 		Uiso   ? 		H 		0.11625
H 1.0  		0.24711858551598515 		0.3994331386219459  0.7604562737642586 		Uiso   ? 		H 		0.11625
H 1.0  		0.003140506249607397 		0.6520476100747441  0.7592066977275568 		Uiso   ? 		H 		0.11625
H 1.0  		0.17017618240060295 		0.23612681364235918  0.36862493082704084 		Uiso   ? 		H 		0.31103
H 1.0  		0.67147949249419 		0.766872369826016  0.3655902461664793 		Uiso   ? 		H 		0.31103
H 1.0  		0.4225943722128007 		0.000981408203002324  0.3650547135793213 		Uiso   ? 		H 		0.31103
H 1.0  		0.9127096287921614 		0.47559041517492623  0.36184151805637377 		Uiso   ? 		H 		0.31103
H 1.0  		0.913494755354563 		0.9712015576911  0.37005301772612864 		Uiso   ? 		H 		0.31103
H 1.0  		0.5648985616481378 		0.27145750895044285  0.4278905371391849 		Uiso   ? 		H 		0.31103
H 1.0  		0.4208278374473965 		0.510528547201809  0.3663042896160232 		Uiso   ? 		H 		0.31103
H 1.0  		0.16742823943219642 		0.7411594749073551  0.367375354790339 		Uiso   ? 		H 		0.31103
H 1.0  		0.0645766597575529 		0.2759719866842535  0.73600028561738 		Uiso   ? 		H 		0.31031
H 1.0  		0.560776647195528 		0.7517586834997803  0.7393919920027134 		Uiso   ? 		H 		0.31031
H 1.0  		0.3097324288675335 		0.024338923434457635  0.7365358182045378 		Uiso   ? 		H 		0.31031
H 1.0  		0.9291972866026004 		0.5181835311852271  0.6783412770667095 		Uiso   ? 		H 		0.31031
H 1.0  		0.808680359273915 		0.027871992965266  0.7365358182045378 		Uiso   ? 		H 		0.31031
H 1.0  		0.5637208718045349 		0.24476320582877964  0.7384994376907834 		Uiso   ? 		H 		0.31031
H 1.0  		0.31463946988254504 		0.5268199233716476  0.734929220443064 		Uiso   ? 		H 		0.31031
H 1.0  		0.06202499842974683 		0.7704054393568244  0.7331441118192042 		Uiso   ? 		H 		0.31031
H 1.0  		0.1442670058413416 		0.24731486715658565  0.35220193148753104 		Uiso   ? 		H 		0.32052
H 1.0  		0.6430186546071227 		0.7637318635764085  0.3495242685517414 		Uiso   ? 		H 		0.32052
H 1.0  		0.39432981596633376 		0.003925632812009296  0.3516663989003731 		Uiso   ? 		H 		0.32052
H 1.0  		0.8820896928584888 		0.47716066829973  0.35148788803798714 		Uiso   ? 		H 		0.32052
H 1.0  		0.8873892971547013 		0.9808193580805226  0.3520234206251451 		Uiso   ? 		H 		0.32052
H 1.0  		0.565487406569939 		0.2777385214496577  0.3962941144968672 		Uiso   ? 		H 		0.32052
H 1.0  		0.39393725268513285 		0.5177909679040261  0.34934575768935544 		Uiso   ? 		H 		0.32052
H 1.0  		0.14171534451353554 		0.750384712015577  0.3502383120012853 		Uiso   ? 		H 		0.32052
H 1.0  		0.06614691288235663 		0.2793087745744614  0.705117906424606 		Uiso   ? 		H 		0.32099
H 1.0  		0.5599915206331262 		0.7548991897493876  0.7088666345347115 		Uiso   ? 		H 		0.32099
H 1.0  		0.30875102066453114 		0.021787262106651595  0.7061889715989218 		Uiso   ? 		H 		0.32099
H 1.0  		0.9019141385591357 		0.5191649393882294  0.6608472125528839 		Uiso   ? 		H 		0.32099
H 1.0  		0.8106431756799196 		0.024338923434457635  0.7056534390117639 		Uiso   ? 		H 		0.32099
H 1.0  		0.5605803655549275 		0.25065165504679354  0.7088666345347115 		Uiso   ? 		H 		0.32099
H 1.0  		0.3114989636329376 		0.5248571069656429  0.704760884699834 		Uiso   ? 		H 		0.32099
H 1.0  		0.06320268827334963 		0.7731533823252309  0.7019047109016584 		Uiso   ? 		H 		0.32099
H 1.0  		0.1048143960806482 		0.2838232523082721  0.4459201342401686 		Uiso   ? 		H 		0.12600
H 1.0  		0.5998366936750205 		0.7611802022486025  0.44752673200164234 		Uiso   ? 		H 		0.12600
H 1.0  		0.35212926323723387 		0.014132278123233465  0.4484192863135722 		Uiso   ? 		H 		0.12600
H 1.0  		0.866976006532253 		0.5391856667294768  0.4393152323318874 		Uiso   ? 		H 		0.12600
H 1.0  		0.8616764022360405 		0.0317976257772753  0.4441350256163088 		Uiso   ? 		H 		0.12600
H 1.0  		0.6763865335092017 		0.2553624144212047  0.4075402988271836 		Uiso   ? 		H 		0.12600
H 1.0  		0.35075529175303055 		0.518576094466428  0.45002588407504596 		Uiso   ? 		H 		0.12600
H 1.0  		0.10481439608064817 		0.7798269581056466  0.4448490690658527 		Uiso   ? 		H 		0.12600
H 1.0  		0.17763488474342062 		0.2610545819986182  0.71957728627787 		Uiso   ? 		H 		0.12519
H 1.0  		0.6699092393693864 		0.7798269581056466  0.7215409057641158 		Uiso   ? 		H 		0.12519
H 1.0  		0.4229869354940016 		0.02532033163745996  0.7177921776540103 		Uiso   ? 		H 		0.12519
H 1.0  		0.8538251366120219 		0.5113136737642108  0.7538513718559775 		Uiso   ? 		H 		0.12519
H 1.0  		0.9213460209785818 		0.026301739840462284  0.7263606990485372 		Uiso   ? 		H 		0.12519
H 1.0  		0.6716757741347906 		0.2850009421518749  0.7193987754154841 		Uiso   ? 		H 		0.12519
H 1.0  		0.4257348784624081 		0.5079768858740029  0.7167211124796944 		Uiso   ? 		H 		0.12519
H 1.0  		0.17606463161861688 		0.772368255762829  0.7177921776540103 		Uiso   ? 		H 		0.12519
H 1.0  		0.8911186483261102 		0.32700521324037435  0.17190596047769507 		Uiso   ? 		H 		0.12450
H 1.0  		0.3878525218265184 		0.8338044092707746  0.18333065567039755 		Uiso   ? 		H 		0.12450
H 1.0  		0.13896740154512907 		0.07890521952138686  0.142451668184009 		Uiso   ? 		H 		0.12450
H 1.0  		0.6381116135921111 		0.5764791784435651  0.15494742855102733 		Uiso   ? 		H 		0.12450
H 1.0  		0.6412521198417185 		0.07831637459958546  0.14994912440422 		Uiso   ? 		H 		0.12450
H 1.0  		0.3882450851077194 		0.3250423968343697  0.15691104803727307 		Uiso   ? 		H 		0.12450
H 1.0  		0.13661202185792345 		0.5753014885999623  0.1642299933950981 		Uiso   ? 		H 		0.12450
H 1.0  		0.8909223666855097 		0.8314490295835689  0.17726128634927435 		Uiso   ? 		H 		0.12450
H 1.0  		0.8885669869983042 		0.3262200866779725  0.4716256984237491 		Uiso   ? 		H 		0.12366
H 1.0  		0.387263676904717 		0.8285048049745619  0.47055463324943325 		Uiso   ? 		H 		0.12366
H 1.0  		0.1462298222473463 		0.07910150116198732  0.4739463396347668 		Uiso   ? 		H 		0.12366
H 1.0  		0.6383078952327115 		0.5800122479743736  0.48180081757974974 		Uiso   ? 		H 		0.12366
H 1.0  		0.6400744299981158 		0.0802791910055901  0.4741248504971528 		Uiso   ? 		H 		0.12366
H 1.0  		0.38804880346711895 		0.3301457194899818  0.480194219818276 		Uiso   ? 		H 		0.12366
H 1.0  		0.13778971170152626 		0.5786382764901702  0.4762669808457845 		Uiso   ? 		H 		0.12366
H 1.0  		0.8879781420765028 		0.8271308334903588  0.4768025134329424 		Uiso   ? 		H 		0.12366
H 1.0  		0.8881744237171033 		0.33426763394259157  0.7799139577643299 		Uiso   ? 		H 		0.11831
H 1.0  		0.38490829721751146 		0.8338044092707746  0.7918741855441904 		Uiso   ? 		H 		0.11831
H 1.0  		0.13661202185792348 		0.08204572577099428  0.7866973705349971 		Uiso   ? 		H 		0.11831
H 1.0  		0.6416446831229194 		0.5802085296149739  0.7777718274156983 		Uiso   ? 		H 		0.11831
H 1.0  		0.6426260913259217 		0.08067175428679103  0.7733090558560488 		Uiso   ? 		H 		0.11831
H 1.0  		0.3909930280761259 		0.3301457194899818  0.779556936039558 		Uiso   ? 		H 		0.11831
H 1.0  		0.13837855662332765 		0.58276019094278  0.7736660775808207 		Uiso   ? 		H 		0.11831
H 1.0  		0.8858190440298976 		0.8332155643489731  0.7886609900212429 		Uiso   ? 		H 		0.11831
H 1.0  		0.8018105018528987 		0.20177752653727782  0.22367411056962816 		Uiso   ? 		H 		0.44588
H 1.0  		0.2991332202751083 		0.7028845549902645  0.22028240418429462 		Uiso   ? 		H 		0.44588
H 1.0  		0.05299604296212545 		0.951377111990453  0.22385262143201415 		Uiso   ? 		H 		0.44588
H 1.0  		0.5499811569625024 		0.44968123861566484  0.2258162409182599 		Uiso   ? 		H 		0.44588
H 1.0  		0.5548881979775139 		0.9525548018340556  0.2258162409182599 		Uiso   ? 		H 		0.44588
H 1.0  		0.29991834683751023 		0.19824445700646945  0.22510219746871596 		Uiso   ? 		H 		0.44588
H 1.0  		0.04985553671251804 		0.4534105897870737  0.22742283867973367 		Uiso   ? 		H 		0.44588
H 1.0  		0.7994551221656933 		0.7070064694428743  0.2240311322944001 		Uiso   ? 		H 		0.44588
H 1.0  		0.051033226556120824 		0.45085892845926767  0.5303557721487353 		Uiso   ? 		H 		0.45909
H 1.0  		0.5519439733685069 		0.9525548018340556  0.5307127938735072 		Uiso   ? 		H 		0.45909
H 1.0  		0.3032551347277181 		0.20059983669367504  0.5308913047358933 		Uiso   ? 		H 		0.45909
H 1.0  		0.8049510081025062 		0.7007254569436593  0.5303557721487353 		Uiso   ? 		H 		0.45909
H 1.0  		0.8049510081025062 		0.19863702028767038  0.5335689676716828 		Uiso   ? 		H 		0.45909
H 1.0  		0.5489997487595001 		0.4538031530682746  0.5351755654331567 		Uiso   ? 		H 		0.45909
H 1.0  		0.2999183468375102 		0.703080836630865  0.5316053481854371 		Uiso   ? 		H 		0.45909
H 1.0  		0.05240719804032405 		0.9515733936310533  0.5298202395615773 		Uiso   ? 		H 		0.45909
H 1.0  		0.8071101061491113 		0.20589944098988758  0.8416787161498778 		Uiso   ? 		H 		0.45966
H 1.0  		0.3034514163683185 		0.6983700772564537  0.8418572270122637 		Uiso   ? 		H 		0.45966
H 1.0  		0.05554770428993148 		0.9498068588656493  0.8409646727003339 		Uiso   ? 		H 		0.45966
H 1.0  		0.551943973368507 		0.4485035487720621  0.8406076509755619 		Uiso   ? 		H 		0.45966
H 1.0  		0.5505700018843037 		0.9533399283964576  0.8409646727003339 		Uiso   ? 		H 		0.45966
H 1.0  		0.3007034733999121 		0.19863702028767038  0.8429282921865797 		Uiso   ? 		H 		0.45966
H 1.0  		0.05456629608692919 		0.451447773381069  0.8422142487370357 		Uiso   ? 		H 		0.45966
H 1.0  		0.8073063877897119 		0.6950332893662459  0.8365019011406845 		Uiso   ? 		H 		0.45966
H 1.0  		0.978071415112116 		0.10285157967464356  0.3711240829004446 		Uiso   ? 		H 		0.13456
H 1.0  		0.48010489290873687 		0.5984627221908172  0.3725521697995324 		Uiso   ? 		H 		0.13456
H 1.0  		0.2237610702845298 		0.8522548834872181  0.36933897427658474 		Uiso   ? 		H 		0.13456
H 1.0  		0.7543103448275863 		0.42102411908799703  0.4075402988271836 		Uiso   ? 		H 		0.13456
H 1.0  		0.7262420702217198 		0.8489180955970104  0.37076706117567254 		Uiso   ? 		H 		0.13456
H 1.0  		0.465776333144903 		0.10952515545505938  0.37219514807476034 		Uiso   ? 		H 		0.13456
H 1.0  		0.2168912128635136 		0.35782143081464735  0.37540834359770797 		Uiso   ? 		H 		0.13456
H 1.0  		0.9770900069091137 		0.6017995100810251  0.3729091915243043 		Uiso   ? 		H 		0.13456
H 1.0  		0.9853338358143332 		0.10049619998743799  0.6767346793052358 		Uiso   ? 		H 		0.13364
H 1.0  		0.4789272030651341 		0.6019957917216257  0.6806619182777273 		Uiso   ? 		H 		0.13364
H 1.0  		0.22317222536272843 		0.8536288549714215  0.6813759617272712 		Uiso   ? 		H 		0.13364
H 1.0  		0.7270271967841216 		0.35428836128383895  0.6820900051768151 		Uiso   ? 		H 		0.13364
H 1.0  		0.7295788581119277 		0.8520586018466177  0.6820900051768151 		Uiso   ? 		H 		0.13364
H 1.0  		0.47460900697192393 		0.10304786131524403  0.6840536246630607 		Uiso   ? 		H 		0.13364
H 1.0  		0.2184614659883173 		0.3586065573770492  0.6819114943144291 		Uiso   ? 		H 		0.13364
H 1.0  		0.9698275862068966 		0.6080805225802399  0.6838751138006748 		Uiso   ? 		H 		0.13364
H 1.0  		0.9841561459707305 		0.39609635073173793  0.29757760759742236 		Uiso   ? 		H 		0.11554
H 1.0  		0.4973776772815777 		0.8960256893411219  0.3013263357075278 		Uiso   ? 		H 		0.11554
H 1.0  		0.2573252308272094 		0.14740751209094907  0.2932933469001589 		Uiso   ? 		H 		0.11554
H 1.0  		0.7578434143583946 		0.640663274919917  0.29704207501026436 		Uiso   ? 		H 		0.11554
H 1.0  		0.7329156460021355 		0.14917404685635324  0.292579303450615 		Uiso   ? 		H 		0.11554
H 1.0  		0.5042475347025941 		0.3268089315997739  0.2563415983862618 		Uiso   ? 		H 		0.11554
H 1.0  		0.25987689215501536 		0.644000062810125  0.2893661079276674 		Uiso   ? 		H 		0.11554
H 1.0  		0.998680987375165 		0.8993624772313297  0.29418590121208876 		Uiso   ? 		H 		0.11554
H 1.0  		0.9920074115947491 		0.4031624897933547  0.6058658669380033 		Uiso   ? 		H 		0.11609
H 1.0  		0.507584322592802 		0.8964182526223228  0.6047948017636874 		Uiso   ? 		H 		0.11609
H 1.0  		0.2610545819986182 		0.1462298222473463  0.6021171388278977 		Uiso   ? 		H 		0.11609
H 1.0  		0.7366449971735445 		0.6467480057785315  0.6044377800389155 		Uiso   ? 		H 		0.11609
H 1.0  		0.7515624018591798 		0.15094058162175744  0.606936932112319 		Uiso   ? 		H 		0.11609
H 1.0  		0.5014995917341876 		0.3964889140129389  0.6058658669380033 		Uiso   ? 		H 		0.11609
H 1.0  		0.2663541862948307 		0.6430186546071227  0.5996179867544941 		Uiso   ? 		H 		0.11609
H 1.0  		0.9894557502669432 		0.898577350668928  0.6046162909013014 		Uiso   ? 		H 		0.11609
H 1.0  		0.9162426983229698 		0.22886439294014194  0.21099983934022384 		Uiso   ? 		H 		0.31117
H 1.0  		0.426127441743609 		0.7476367690471705  0.21135686106499582 		Uiso   ? 		H 		0.31117
H 1.0  		0.17508322341561455 		0.998288424093964  0.2106428176154519 		Uiso   ? 		H 		0.31117
H 1.0  		0.6650021983543748 		0.46989824759751275  0.2190328281475928 		Uiso   ? 		H 		0.31117
H 1.0  		0.6734423089001946 		0.9900445951887444  0.209928774165908 		Uiso   ? 		H 		0.31117
H 1.0  		0.4088546573707682 		0.22219081715972613  0.217426230386119 		Uiso   ? 		H 		0.31117
H 1.0  		0.1633063249795867 		0.48461937064254756  0.20975026330352203 		Uiso   ? 		H 		0.31117
H 1.0  		0.9170278248853715 		0.7372338420953458  0.21278494796408362 		Uiso   ? 		H 		0.31117
H 1.0  		0.920168331134979 		0.2359305320017587  0.5250004462771559 		Uiso   ? 		H 		0.31162
H 1.0  		0.41415426166698066 		0.7291862948307267  0.5232153376532962 		Uiso   ? 		H 		0.31162
H 1.0  		0.17115759060360525 		0.9906334401105458  0.525178957139542 		Uiso   ? 		H 		0.31162
H 1.0  		0.6555806796055524 		0.4665614597073048  0.5266070440386298 		Uiso   ? 		H 		0.31162
H 1.0  		0.6767790967904026 		0.013347151560831608  0.5228583159285243 		Uiso   ? 		H 		0.31162
H 1.0  		0.4204352741661956 		0.23180861754914894  0.5244649136899981 		Uiso   ? 		H 		0.31162
H 1.0  		0.16232491677658437 		0.47716066829973  0.5196451204055768 		Uiso   ? 		H 		0.31162
H 1.0  		0.9266456252747943 		0.7607876389674015  0.5160749031578572 		Uiso   ? 		H 		0.31162
H 1.0  		0.8901372401231079 		0.23926731989196662  0.19439832913832808 		Uiso   ? 		H 		0.31951
H 1.0  		0.3970777589347403 		0.750777275296778  0.1933272639640122 		Uiso   ? 		H 		0.31951
H 1.0  		0.14721123045034856 		0.9998586772187678  0.19529088345025797 		Uiso   ? 		H 		0.31951
H 1.0  		0.640663274919917 		0.48147886439294013  0.20028918759706532 		Uiso   ? 		H 		0.31951
H 1.0  		0.6440000628101249 		0.9922036932353495  0.19493386172548602 		Uiso   ? 		H 		0.31951
H 1.0  		0.3870673952641166 		0.23887475661076568  0.19921812242274944 		Uiso   ? 		H 		0.31951
H 1.0  		0.13837855662332765 		0.49973305696878334  0.19493386172548602 		Uiso   ? 		H 		0.31951
H 1.0  		0.8901372401231079 		0.7409631932667546  0.1972545029365037 		Uiso   ? 		H 		0.31951
H 1.0  		0.8934740280133158 		0.24378179762577729  0.5083989360752602 		Uiso   ? 		H 		0.31999
H 1.0  		0.38863764838892023 		0.7421408831103574  0.5069708491761724 		Uiso   ? 		H 		0.31999
H 1.0  		0.14230418943533693 		0.9955404811255575  0.5087559578000321 		Uiso   ? 		H 		0.31999
H 1.0  		0.6345785440613028 		0.482263990955342  0.509112979524804 		Uiso   ? 		H 		0.31999
H 1.0  		0.6492996671063376 		0.018646755857044155  0.5060782948642425 		Uiso   ? 		H 		0.31999
H 1.0  		0.3925632812009296 		0.23965988317316755  0.5087559578000321 		Uiso   ? 		H 		0.31999
H 1.0  		0.13543433201432067 		0.488152440173356  0.5041146753779967 		Uiso   ? 		H 		0.31999
H 1.0  		0.8966145342629231 		0.758432259280196  0.5009014798550492 		Uiso   ? 		H 		0.31999
H 1.0  		0.8577507694240313 		0.2365193769235601  0.8270408254342277 		Uiso   ? 		H 		0.41688
H 1.0  		0.356447459330444 		0.736056152251743  0.8288259340580875 		Uiso   ? 		H 		0.41688
H 1.0  		0.10775862068965514 		0.986904088939137  0.8302540209571753 		Uiso   ? 		H 		0.41688
H 1.0  		0.6045474530494316 		0.4901152565793606  0.8288259340580875 		Uiso   ? 		H 		0.41688
H 1.0  		0.6053325796118334 		0.9853338358143332  0.8298969992324033 		Uiso   ? 		H 		0.41688
H 1.0  		0.3546809245650399 		0.23887475661076568  0.8350738142415967 		Uiso   ? 		H 		0.41688
H 1.0  		0.10677721248665284 		0.4895264116575593  0.832039129581035 		Uiso   ? 		H 		0.41688
H 1.0  		0.8604987123924378 		0.7329156460021355  0.8236491190488942 		Uiso   ? 		H 		0.41688
H 1.0  		0.8599098674706364 		0.2824492808240689  0.28758099930380765 		Uiso   ? 		H 		0.12648
H 1.0  		0.3576251491740468 		0.7813972112304504  0.2893661079276674 		Uiso   ? 		H 		0.12648
H 1.0  		0.10579580428365054 		0.02610545819986182  0.28990164051482537 		Uiso   ? 		H 		0.12648
H 1.0  		0.6063139878148358 		0.5327083725896615  0.2900801513772113 		Uiso   ? 		H 		0.12648
H 1.0  		0.6120061553922492 		0.030031091011871115  0.2913297274139131 		Uiso   ? 		H 		0.12648
H 1.0  		0.36076565542365435 		0.28696375855787953  0.29204377086345706 		Uiso   ? 		H 		0.12648
H 1.0  		0.11031028201746121 		0.5399707932918787  0.2907941948267552 		Uiso   ? 		H 		0.12648
H 1.0  		0.8555916713774261 		0.7784529866214435  0.292400792588229 		Uiso   ? 		H 		0.12648
H 1.0  		0.8565730795804284 		0.28696375855787953  0.6014030953783539 		Uiso   ? 		H 		0.12634
H 1.0  		0.3578214308146473 		0.7821823377928522  0.6017601171031257 		Uiso   ? 		H 		0.12634
H 1.0  		0.10245901639344264 		0.030423654293072044  0.6014030953783539 		Uiso   ? 		H 		0.12634
H 1.0  		0.6226053639846744 		0.5427187362602852  0.599975008479266 		Uiso   ? 		H 		0.12634
H 1.0  		0.6033697632058288 		0.017665347654041832  0.6021171388278977 		Uiso   ? 		H 		0.12634
H 1.0  		0.3570363042522455 		0.27322404371584696  0.6044377800389155 		Uiso   ? 		H 		0.12634
H 1.0  		0.11345078826706863 		0.5378116952452736  0.5976543672682483 		Uiso   ? 		H 		0.12634
H 1.0  		0.8579470510646318 		0.766872369826016  0.59979649761688 		Uiso   ? 		H 		0.12634
H 1.0  		0.13778971170152626 		0.33053828277118275  0.3306021171388279 		Uiso   ? 		H 		0.12449
H 1.0  		0.6381116135921111 		0.8261494252873564  0.3195344436708974 		Uiso   ? 		H 		0.12449
H 1.0  		0.3909930280761259 		0.07772752967778407  0.31185847658830046 		Uiso   ? 		H 		0.12449
H 1.0  		0.8844450725456945 		0.5760866151623643  0.3191774219461255 		Uiso   ? 		H 		0.12449
H 1.0  		0.8903335217637083 		0.07694240311538221  0.32488976954247667 		Uiso   ? 		H 		0.12449
H 1.0  		0.6398781483575152 		0.3250423968343697  0.3159642264231779 		Uiso   ? 		H 		0.12449
H 1.0  		0.3845157339363105 		0.5821713460209786  0.3323872257626877 		Uiso   ? 		H 		0.12449
H 1.0  		0.1395562464669304 		0.8288973682557629  0.3191774219461255 		Uiso   ? 		H 		0.12449
H 1.0  		0.14112649959173415 		0.32700521324037435  0.6271086595619344 		Uiso   ? 		H 		0.12362
H 1.0  		0.6388967401545129 		0.8304676213805666  0.6385333547546369 		Uiso   ? 		H 		0.12362
H 1.0  		0.3866748319829157 		0.07949406444318825  0.6447812349381461 		Uiso   ? 		H 		0.12362
H 1.0  		0.8913149299667108 		0.5817787827397777  0.6285367464610222 		Uiso   ? 		H 		0.12362
H 1.0  		0.8911186483261102 		0.08165316248979336  0.6271086595619344 		Uiso   ? 		H 		0.12362
H 1.0  		0.6441963444507255 		0.32602380503737205  0.6262161052500045 		Uiso   ? 		H 		0.12362
H 1.0  		0.39099302807612585 		0.5780494315683689  0.638354843892251 		Uiso   ? 		H 		0.12362
H 1.0  		0.13759343006092575 		0.8320378745053703  0.6344276049197594 		Uiso   ? 		H 		0.12362
H 1.0  		0.05240719804032409 		0.19942214685007226  0.37665791963440975 		Uiso   ? 		H 		0.45824
H 1.0  		0.5517476917279066 		0.6995477671000566  0.37487281101055003 		Uiso   ? 		H 		0.45824
H 1.0  		0.30050719175931156 		0.9503957037874505  0.37522983273532196 		Uiso   ? 		H 		0.45824
H 1.0  		0.8065212612273099 		0.4455593241630551  0.3705885503132866 		Uiso   ? 		H 		0.45824
H 1.0  		0.8037733182589032 		0.9441146912882357  0.37201663721237443 		Uiso   ? 		H 		0.45824
H 1.0  		0.5533179448527102 		0.19490766911626156  0.3764794087720238 		Uiso   ? 		H 		0.45824
H 1.0  		0.3032551347277181 		0.4504663651780667  0.37755047394633967 		Uiso   ? 		H 		0.45824
H 1.0  		0.04710759374411151 		0.7024919917090636  0.37415876756100613 		Uiso   ? 		H 		0.45824
H 1.0  		0.05358488788392688 		0.20040355505307456  0.6860172441493065 		Uiso   ? 		H 		0.45526
H 1.0  		0.5523365366497079 		0.7015105835060612  0.6869097984612363 		Uiso   ? 		H 		0.45526
H 1.0  		0.30541423277432317 		0.9488254506626468  0.6840536246630607 		Uiso   ? 		H 		0.45526
H 1.0  		0.806128697946109 		0.4534105897870737  0.6867312875988504 		Uiso   ? 		H 		0.45526
H 1.0  		0.8039695998995038 		0.9519659569122543  0.6861957550116925 		Uiso   ? 		H 		0.45526
H 1.0  		0.5542993530557125 		0.20040355505307456  0.6885163962227102 		Uiso   ? 		H 		0.45526
H 1.0  		0.3054142327743232 		0.4445779159600528  0.6845891572502187 		Uiso   ? 		H 		0.45526
H 1.0  		0.05417373280572825 		0.7050436530368696  0.6847676681126047 		Uiso   ? 		H 		0.45526
H 1.0  		0.09715941209723006 		0.17194271716600718  0.18886449240436282 		Uiso   ? 		H 		0.31311
H 1.0  		0.5925742729728033 		0.6763865335092017  0.18725789464288903 		Uiso   ? 		H 		0.31311
H 1.0  		0.3533069530808366 		0.922719992462785  0.1237080276334815 		Uiso   ? 		H 		0.31311
H 1.0  		0.8542176998932229 		0.42063155580679606  0.12031632124814796 		Uiso   ? 		H 		0.31311
H 1.0  		0.8538251366120218 		0.9215423026191824  0.12120887556007785 		Uiso   ? 		H 		0.31311
H 1.0  		0.5961073425036116 		0.17331668865021044  0.18725789464288903 		Uiso   ? 		H 		0.31311
H 1.0  		0.34506312417561713 		0.4282865397902142  0.1335261250647102 		Uiso   ? 		H 		0.31311
H 1.0  		0.0940189058476226 		0.6795270397588092  0.1419161355968511 		Uiso   ? 		H 		0.31311
H 1.0  		0.09441146912882356 		0.18057910935242763  0.45555972080901125 		Uiso   ? 		H 		0.31021
H 1.0  		0.5917891464104014 		0.6809010112430124  0.4557382316713972 		Uiso   ? 		H 		0.31021
H 1.0  		0.33976351987940456 		0.9329266377740093  0.45663078598332707 		Uiso   ? 		H 		0.31021
H 1.0  		0.8442073362225991 		0.43064191947741975  0.4591299380567308 		Uiso   ? 		H 		0.31021
H 1.0  		0.8445998995038 		0.9309638213680046  0.45073992752458986 		Uiso   ? 		H 		0.31021
H 1.0  		0.6004255385968219 		0.1819530808366309  0.44127885181813314 		Uiso   ? 		H 		0.31021
H 1.0  		0.3476147855034232 		0.4253423151812072  0.43913672146950145 		Uiso   ? 		H 		0.31021
H 1.0  		0.09892594686263421 		0.6769753784310031  0.4418143844052911 		Uiso   ? 		H 		0.31021
H 1.0  		0.097551975378431 		0.18116795427422902  0.7499241328834859 		Uiso   ? 		H 		0.31023
H 1.0  		0.5913965831292004 		0.6828638276490171  0.7640264910119782 		Uiso   ? 		H 		0.31023
H 1.0  		0.3421188995666101 		0.931160103008605  0.750102643745872 		Uiso   ? 		H 		0.31023
H 1.0  		0.8479366873940081 		0.43653036869543377  0.7499241328834859 		Uiso   ? 		H 		0.31023
H 1.0  		0.840870548332391 		0.9307675397274041  0.7529588175440476 		Uiso   ? 		H 		0.31023
H 1.0  		0.5949296526600089 		0.18371961560203506  0.7567075456541531 		Uiso   ? 		H 		0.31023
H 1.0  		0.3497738835500283 		0.4275014132278123  0.7402845463146434 		Uiso   ? 		H 		0.31023
H 1.0  		0.09500031405062492 		0.6860043338986245  0.7493886002963281 		Uiso   ? 		H 		0.31023
H 1.0  		0.1305272909993091 		0.17979398279002576  0.1904710901658366 		Uiso   ? 		H 		0.32686
H 1.0  		0.6239793354688776 		0.6852192073362227  0.18707938378050307 		Uiso   ? 		H 		0.32686
H 1.0  		0.3803938194837007 		0.9364597073048175  0.134954211963798 		Uiso   ? 		H 		0.32686
H 1.0  		0.8840525092644934 		0.4331935808052258  0.1288848426426748 		Uiso   ? 		H 		0.32686
H 1.0  		0.8850339174674958 		0.9321415112116073  0.12852782091790285 		Uiso   ? 		H 		0.32686
H 1.0  		0.6239793354688776 		0.18823409333584573  0.18029597100983596 		Uiso   ? 		H 		0.32686
H 1.0  		0.3770570315934929 		0.43947459330444066  0.13941698352344742 		Uiso   ? 		H 		0.32686
H 1.0  		0.1258165316248979 		0.6885559952264305  0.1363822988628858 		Uiso   ? 		H 		0.32686
H 1.0  		0.12483512342189561 		0.1911783179448527  0.4514539709741338 		Uiso   ? 		H 		0.32786
H 1.0  		0.6231942089064757 		0.691303938194837  0.4521680144236777 		Uiso   ? 		H 		0.32786
H 1.0  		0.37293511714088307 		0.9415630299604296  0.4502043949374319 		Uiso   ? 		H 		0.32786
H 1.0  		0.8756123987186736 		0.4381006218202375  0.44931184062550206 		Uiso   ? 		H 		0.32786
H 1.0  		0.8773789334840775 		0.9358708623830162  0.4437780038915369 		Uiso   ? 		H 		0.32786
H 1.0  		0.632615727655298 		0.19000062810124993  0.4437780038915369 		Uiso   ? 		H 		0.32786
H 1.0  		0.37725331323409333 		0.437904340179637  0.44609864510255454 		Uiso   ? 		H 		0.32786
H 1.0  		0.1303310093587086 		0.6865931788204259  0.44199289526767704 		Uiso   ? 		H 		0.32786
H 1.0  		0.1277793480309026 		0.19157088122605365  0.7515307306449598 		Uiso   ? 		H 		0.31949
H 1.0  		0.6222128007034734 		0.6932667546008418  0.7576000999660829 		Uiso   ? 		H 		0.31949
H 1.0  		0.3715611456566798 		0.9417593116010301  0.7542083935807494 		Uiso   ? 		H 		0.31949
H 1.0  		0.8805194397336851 		0.44143740971044537  0.7454613613238367 		Uiso   ? 		H 		0.31949
H 1.0  		0.8720793291878649 		0.9423481565228315  0.7540298827183635 		Uiso   ? 		H 		0.31949
H 1.0  		0.6253533069530809 		0.19215972614785504  0.7524232849568896 		Uiso   ? 		H 		0.31949
H 1.0  		0.38157150932730355 		0.43633408705483323  0.7433192309752048 		Uiso   ? 		H 		0.31949
H 1.0  		0.1258165316248979 		0.6964072608504491  0.7517092415073459 		Uiso   ? 		H 		0.31949
H 1.0  		0.013150869920231133 		0.14367816091954025  0.21546261089987329 		Uiso   ? 		H 		0.13039
H 1.0  		0.5036586897807926 		0.6487108221845362  0.2129634588264696 		Uiso   ? 		H 		0.13039
H 1.0  		0.29108567301048927 		0.8866041705922996  0.21956836073475072 		Uiso   ? 		H 		0.13039
H 1.0  		0.7635355819358082 		0.4011996733873501  0.21385601313839947 		Uiso   ? 		H 		0.13039
H 1.0  		0.7627504553734062 		0.8979885057471265  0.21421303486317142 		Uiso   ? 		H 		0.13039
H 1.0  		0.5187723761070284 		0.14976289177815466  0.2159981434870312 		Uiso   ? 		H 		0.13039
H 1.0  		0.2610545819986182 		0.4027699265121538  0.21938984987236476 		Uiso   ? 		H 		0.13039
H 1.0  		0.010402926951824595 		0.6506736385905408  0.21278494796408362 		Uiso   ? 		H 		0.13039
H 1.0  		0.030031091011871104 		0.14524841404434397  0.5267855549010158 		Uiso   ? 		H 		0.13328
H 1.0  		0.5348674706362666 		0.6418409647635199  0.5305342830111213 		Uiso   ? 		H 		0.13328
H 1.0  		0.28323440738647065 		0.8936703096539163  0.5274995983505597 		Uiso   ? 		H 		0.13328
H 1.0  		0.7876782237296652 		0.3911893097167264  0.5294632178368054 		Uiso   ? 		H 		0.13328
H 1.0  		0.7812009295898499 		0.8960256893411219  0.5271425766257877 		Uiso   ? 		H 		0.13328
H 1.0  		0.5344749073550656 		0.14544469568494442  0.5276781092129457 		Uiso   ? 		H 		0.13328
H 1.0  		0.2824492808240689 		0.3939372526851329  0.5273210874881737 		Uiso   ? 		H 		0.13328
H 1.0  		0.04475221405690594 		0.6255495885936813  0.5391028044056482 		Uiso   ? 		H 		0.13328
H 1.0  		0.997895860812763 		0.3480073487846241  0.45056141666220395 		Uiso   ? 		H 		0.11872
H 1.0  		0.4952185792349727 		0.8518623202060173  0.45127546011174785 		Uiso   ? 		H 		0.11872
H 1.0  		0.2486888386407889 		0.10422555115884682  0.4466341776897124 		Uiso   ? 		H 		0.11872
H 1.0  		0.7497958670937755 		0.6033697632058288  0.44859779717595816 		Uiso   ? 		H 		0.11872
H 1.0  		0.7605913573268012 		0.09774825701903148  0.45127546011174785 		Uiso   ? 		H 		0.11872
H 1.0  		0.4783383581433327 		0.36194334526725713  0.44681268855209844 		Uiso   ? 		H 		0.11872
H 1.0  		0.24967024684379122 		0.6025846366434269  0.4473482211392563 		Uiso   ? 		H 		0.11872
H 1.0  		0.012954588279630625 		0.8522548834872181  0.4484192863135722 		Uiso   ? 		H 		0.11872
H 1.0  		0.004907041015011599 		0.35212926323723387  0.7606347846266446 		Uiso   ? 		H 		0.11966
H 1.0  		0.5054252245461969 		0.8579470510646318  0.7618843606633464 		Uiso   ? 		H 		0.11966
H 1.0  		0.23416399723635453 		0.11070284529866214  0.7563505239293812 		Uiso   ? 		H 		0.11966
H 1.0  		0.7580396959989951 		0.6067065510960368  0.7581356325532409 		Uiso   ? 		H 		0.11966
H 1.0  		0.7356635889705422 		0.11227309842346586  0.757243078241311 		Uiso   ? 		H 		0.11966
H 1.0  		0.5030698448589913 		0.35350323472143713  0.7624198932505043 		Uiso   ? 		H 		0.11966
H 1.0  		0.23985616481376795 		0.6074916776584386  0.7543869044431354 		Uiso   ? 		H 		0.11966
H 1.0  		0.0005888449218013421 		0.8551991080962252  0.7565290347917673 		Uiso   ? 		H 		0.11966
H 1.0  		0.9286084416807989 		0.19961842849067268  0.4219996786804477 		Uiso   ? 		H 		0.31297
H 1.0  		0.4412411280698449 		0.7439074178757616  0.42342776557953554 		Uiso   ? 		H 		0.31297
H 1.0  		0.19058947302305126 		0.9823896112053263  0.4268194719648691 		Uiso   ? 		H 		0.31297
H 1.0  		0.6850229256956222 		0.45360687142767414  0.4278905371391849 		Uiso   ? 		H 		0.31297
H 1.0  		0.6901262483512342 		0.967864769800892  0.4252128742033953 		Uiso   ? 		H 		0.31297
H 1.0  		0.4320158909616231 		0.20550687770868664  0.42271372212999164 		Uiso   ? 		H 		0.31297
H 1.0  		0.18725268513284338 		0.46636517806670436  0.4252128742033953 		Uiso   ? 		H 		0.31297
H 1.0  		0.9339080459770116 		0.7113246655360845  0.4244988307538514 		Uiso   ? 		H 		0.31297
H 1.0  		0.9399927768356259 		0.22336850700332894  0.73600028561738 		Uiso   ? 		H 		0.31286
H 1.0  		0.4402597198668425 		0.7370375604547453  0.7363573073421518 		Uiso   ? 		H 		0.31286
H 1.0  		0.07910150116198726 		0.9753234721437097  0.6799478748281834 		Uiso   ? 		H 		0.31286
H 1.0  		0.6944444444444444 		0.4801048929087369  0.7390349702779414 		Uiso   ? 		H 		0.31286
H 1.0  		0.6930704729602412 		0.9837635826895296  0.7392134811403275 		Uiso   ? 		H 		0.31286
H 1.0  		0.3317159726147855 		0.21492839645750897  0.6813759617272712 		Uiso   ? 		H 		0.31286
H 1.0  		0.18882293825764712 		0.4685242761133095  0.734572198718292 		Uiso   ? 		H 		0.31286
H 1.0  		0.925664217071792 		0.7058287795992715  0.7268962316356951 		Uiso   ? 		H 		0.31286
H 1.0  		0.9321415112116073 		0.20570315934928712  0.39165283207483176 		Uiso   ? 		H 		0.32039
H 1.0  		0.4414374097104453 		0.730952829596131  0.3959370927720952 		Uiso   ? 		H 		0.32039
H 1.0  		0.19235600778845546 		0.9835673010489292  0.3955800710473233 		Uiso   ? 		H 		0.32039
H 1.0  		0.6877708686640287 		0.4630283901764965  0.39718666880879705 		Uiso   ? 		H 		0.32039
H 1.0  		0.690518811632435 		0.9688461780038943  0.39504453846016535 		Uiso   ? 		H 		0.32039
H 1.0  		0.43496011557063 		0.2157135230199108  0.3939734732858494 		Uiso   ? 		H 		0.32039
H 1.0  		0.1860749952892406 		0.46636517806670436  0.3941519841482355 		Uiso   ? 		H 		0.32039
H 1.0  		0.9360671440236167 		0.7142688901450914  0.39308091897391956 		Uiso   ? 		H 		0.32039
H 1.0  		0.9409741850386282 		0.22493876012813266  0.7056534390117639 		Uiso   ? 		H 		0.32070
H 1.0  		0.44261509955404804 		0.7366449971735445  0.7058319498741499 		Uiso   ? 		H 		0.32070
H 1.0  		0.10815118397085606 		0.9798379498775203  0.6629893429015156 		Uiso   ? 		H 		0.32070
H 1.0  		0.6954258526474468 		0.47853463978393324  0.7092236562594834 		Uiso   ? 		H 		0.32070
H 1.0  		0.6942481628038439 		0.9772862885497143  0.7081525910851676 		Uiso   ? 		H 		0.32070
H 1.0  		0.3580177124552478 		0.22101312731612335  0.6640604080758314 		Uiso   ? 		H 		0.32070
H 1.0  		0.18843037497644619 		0.46911312103511094  0.7035113086631322 		Uiso   ? 		H 		0.32070
H 1.0  		0.9329266377740093 		0.717016833113498  0.6985130045163248 		Uiso   ? 		H 		0.32070
H 1.0  		0.8318415928647699 		0.2602694554362163  0.41003945090058735 		Uiso   ? 		H 		0.12513
H 1.0  		0.3287717480057785 		0.7270271967841216  0.41360966814830685 		Uiso   ? 		H 		0.12513
H 1.0  		0.0794940644431882 		0.984744990892532  0.40307752726753426 		Uiso   ? 		H 		0.12513
H 1.0  		0.5798159663337731 		0.4999293386093839  0.41414520073546474 		Uiso   ? 		H 		0.12513
H 1.0  		0.5788345581307706 		0.9961293260473589  0.4084328531391135 		Uiso   ? 		H 		0.12513
H 1.0  		0.32700521324037435 		0.24908140192198983  0.41075349435013125 		Uiso   ? 		H 		0.12513
H 1.0  		0.0773349663965831 		0.4975739589221783  0.4087898748638855 		Uiso   ? 		H 		0.12513
H 1.0  		0.8257568620061554 		0.7495995854531751  0.4061122119280958 		Uiso   ? 		H 		0.12513
H 1.0  		0.8283085233339614 		0.2486888386407889  0.7172566450668523 		Uiso   ? 		H 		0.12288
H 1.0  		0.3273977765215752 		0.73900037686075  0.7197557971402561 		Uiso   ? 		H 		0.12288
H 1.0  		0.14662238552854714 		0.9965218893285598  0.7595637194523287 		Uiso   ? 		H 		0.12288
H 1.0  		0.5817787827397777 		0.4859933421267509  0.7206483514521859 		Uiso   ? 		H 		0.12288
H 1.0  		0.5811899378179761 		0.9849412725331324  0.7156500473053786 		Uiso   ? 		H 		0.12288
H 1.0  		0.4021810815903524 		0.23887475661076568  0.7618843606633464 		Uiso   ? 		H 		0.12288
H 1.0  		0.0785126562401859 		0.49482601595377174  0.7190417536907121 		Uiso   ? 		H 		0.12288
H 1.0  		0.8283085233339614 		0.7615727655298035  0.7147574929934486 		Uiso   ? 		H 		0.12288
H 1.0  		0.9274307518371961 		0.1354343320143207  0.19172066620253844 		Uiso   ? 		H 		0.12053
H 1.0  		0.42337949877520253 		0.6363450788267069  0.19779003552366164 		Uiso   ? 		H 		0.12053
H 1.0  		0.17822372966522199 		0.8836599459832926  0.19779003552366164 		Uiso   ? 		H 		0.12053
H 1.0  		0.675208843665599 		0.38804880346711895  0.19368428568878418 		Uiso   ? 		H 		0.12053
H 1.0  		0.6754051253061993 		0.8877818604359022  0.19761152466127566 		Uiso   ? 		H 		0.12053
H 1.0  		0.42416462533760446 		0.13739714842032535  0.18940002499152073 		Uiso   ? 		H 		0.12053
H 1.0  		0.172727843728409 		0.3843194522957101  0.19850407897320554 		Uiso   ? 		H 		0.12053
H 1.0  		0.9223274291815841 		0.6361487971861065  0.1913636444777665 		Uiso   ? 		H 		0.12053
H 1.0  		0.9268419069153949 		0.1377897117015263  0.5019725450293651 		Uiso   ? 		H 		0.12102
H 1.0  		0.42730513158721184 		0.6388967401545129  0.4992948820935755 		Uiso   ? 		H 		0.12102
H 1.0  		0.1725315620878085 		0.8879781420765028  0.4992948820935755 		Uiso   ? 		H 		0.12102
H 1.0  		0.668927831166384 		0.3866748319829157  0.4903693389742766 		Uiso   ? 		H 		0.12102
H 1.0  		0.6712832108535897 		0.8889595502795051  0.5000089255431194 		Uiso   ? 		H 		0.12102
H 1.0  		0.42612744174360906 		0.13935996482633  0.4984023277816455 		Uiso   ? 		H 		0.12102
H 1.0  		0.1744943784938132 		0.39197443627912826  0.5025080776165229 		Uiso   ? 		H 		0.12102
H 1.0  		0.92056089441618 		0.6335971358583005  0.4969742408825577 		Uiso   ? 		H 		0.12102
H 1.0  		0.9189906412913763 		0.13621945857672257  0.7897320551955588 		Uiso   ? 		H 		0.11945
H 1.0  		0.41807989447898997 		0.6341859807801018  0.7959799353790677 		Uiso   ? 		H 		0.11945
H 1.0  		0.17390553357201177 		0.8895483952013065  0.8079401631589282 		Uiso   ? 		H 		0.11945
H 1.0  		0.6756014069467999 		0.3911893097167264  0.8157946411039113 		Uiso   ? 		H 		0.11945
H 1.0  		0.6720683374159915 		0.8917074932479117  0.809368250058016 		Uiso   ? 		H 		0.11945
H 1.0  		0.42573487846240815 		0.14093021795113372  0.8116888912690338 		Uiso   ? 		H 		0.11945
H 1.0  		0.17704603982161923 		0.3886376483889203  0.8057980328102966 		Uiso   ? 		H 		0.11945
H 1.0  		0.9219348659003832 		0.6400744299981158  0.8200789018011747 		Uiso   ? 		H 		0.11945
H 1.0  		0.9556953080836631 		0.042789397650901326  0.2258162409182599 		Uiso   ? 		H 		0.44866
H 1.0  		0.4526254632246718 		0.5446815526662898  0.22653028436780379 		Uiso   ? 		H 		0.44866
H 1.0  		0.20864738395829402 		0.7912112932604736  0.22367411056962816 		Uiso   ? 		H 		0.44866
H 1.0  		0.7087730042082785 		0.301096036681113  0.22456666488155805 		Uiso   ? 		H 		0.44866
H 1.0  		0.7054362163180705 		0.7929778280258778  0.22188900194576844 		Uiso   ? 		H 		0.44866
H 1.0  		0.45184033666226997 		0.045341058978707376  0.224745175743944 		Uiso   ? 		H 		0.44866
H 1.0  		0.2066845675522894 		0.2922633628540921  0.22849390385404955 		Uiso   ? 		H 		0.44866
H 1.0  		0.956480434646065 		0.5423261729790843  0.22313857798247025 		Uiso   ? 		H 		0.44866
H 1.0  		0.9551064631618617 		0.045733622259908305  0.5283921526624895 		Uiso   ? 		H 		0.46076
H 1.0  		0.46793543119150804 		0.5287827397776522  0.5185740552312608 		Uiso   ? 		H 		0.46076
H 1.0  		0.1964779222410652 		0.8000439670874945  0.5282136418001036 		Uiso   ? 		H 		0.46076
H 1.0  		0.6962109792098486 		0.30031091011871114  0.5316053481854371 		Uiso   ? 		H 		0.46076
H 1.0  		0.6960146975692482 		0.8016142202122982  0.5303557721487353 		Uiso   ? 		H 		0.46076
H 1.0  		0.45262546322467184 		0.05122950819672132  0.5305342830111213 		Uiso   ? 		H 		0.46076
H 1.0  		0.22042428239432196 		0.28127159098046606  0.5198236312679627 		Uiso   ? 		H 		0.46076
H 1.0  		0.9456849444130394 		0.5491960304001006  0.5262500223138579 		Uiso   ? 		H 		0.46076
H 1.0  		0.20472175114628474 		0.30345141636831857  0.8427497813241936 		Uiso   ? 		H 		0.46050
H 1.0  		0.6962109792098486 		0.8084840776333145  0.8432853139113516 		Uiso   ? 		H 		0.46050
H 1.0  		0.4504663651780667 		0.05024809999371899  0.8422142487370357 		Uiso   ? 		H 		0.46050
H 1.0  		0.9496105772250487 		0.5535142264933107  0.8411431835627198 		Uiso   ? 		H 		0.46050
H 1.0  		0.9519659569122543 		0.05849192889893851  0.8416787161498778 		Uiso   ? 		H 		0.46050
H 1.0  		0.7020994284278627 		0.30482538785252183  0.8425712704618076 		Uiso   ? 		H 		0.46050
H 1.0  		0.44889611205326296 		0.5497848753219019  0.8404291401131759 		Uiso   ? 		H 		0.46050
H 1.0  		0.19844073864706985 		0.8071101061491113  0.84025062925079 		Uiso   ? 		H 		0.46050
H 1.0  		0.07674612147478174 		0.09617800389422776  0.3816562237812171 		Uiso   ? 		H 		0.31115
H 1.0  		0.5678427862571447 		0.5908077382073991  0.37201663721237443 		Uiso   ? 		H 		0.31115
H 1.0  		0.3207242007411594 		0.8447961811444006  0.3771934522215677 		Uiso   ? 		H 		0.31115
H 1.0  		0.8192795678663402 		0.3397635198794046  0.35898534425819817 		Uiso   ? 		H 		0.31115
H 1.0  		0.8273271151309591 		0.847151560831606  0.3871900605151824 		Uiso   ? 		H 		0.31115
H 1.0  		0.5705907292255512 		0.08440110545819987  0.35952087684535605 		Uiso   ? 		H 		0.31115
H 1.0  		0.3189576659757553 		0.3423151812072106  0.367553865652725 		Uiso   ? 		H 		0.31115
H 1.0  		0.06909113749136357 		0.596696187425413  0.3779074956711116 		Uiso   ? 		H 		0.31115
H 1.0  		0.07066139061616733 		0.09519659569122543  0.6790553205162534 		Uiso   ? 		H 		0.31182
H 1.0  		0.5731423905533573 		0.5925742729728033  0.6854817115621485 		Uiso   ? 		H 		0.31182
H 1.0  		0.31836882105395387 		0.8383188870045851  0.6670950927363931 		Uiso   ? 		H 		0.31182
H 1.0  		0.8251680170843539 		0.3425114628478111  0.6797693639657973 		Uiso   ? 		H 		0.31182
H 1.0  		0.8245791721625526 		0.8461701526286037  0.6865527767364644 		Uiso   ? 		H 		0.31182
H 1.0  		0.574712643678161 		0.09382262420702217  0.6872668201860084 		Uiso   ? 		H 		0.31182
H 1.0  		0.3199390741787576 		0.33780070347339997  0.6735214837822883 		Uiso   ? 		H 		0.31182
H 1.0  		0.06732460272595939 		0.594144526097607  0.6744140380942181 		Uiso   ? 		H 		0.31182
H 1.0  		0.06693203944475849 		0.128368192952704  0.37737196308395365 		Uiso   ? 		H 		0.32553
H 1.0  		0.5588138307895233 		0.6224090823440739  0.3698745068637427 		Uiso   ? 		H 		0.32553
H 1.0  		0.3126766534765404 		0.8769863702028767  0.37665791963440975 		Uiso   ? 		H 		0.32553
H 1.0  		0.8129985553671253 		0.37156114565667986  0.3661257787536372 		Uiso   ? 		H 		0.32553
H 1.0  		0.8165316248979336 		0.8785566233276805  0.3804066477445152 		Uiso   ? 		H 		0.32553
H 1.0  		0.5595989573519251 		0.1154136046730733  0.36398364840500547 		Uiso   ? 		H 		0.32553
H 1.0  		0.309536147226933 		0.3739165253438855  0.37219514807476034 		Uiso   ? 		H 		0.32553
H 1.0  		0.05927705546134033 		0.6279049682808869  0.37558685446009393 		Uiso   ? 		H 		0.32553
H 1.0  		0.05868821053953897 		0.12581653162489795  0.6779842553419376 		Uiso   ? 		H 		0.32584
H 1.0  		0.5621506186797312 		0.6243718987500786  0.682447026901587 		Uiso   ? 		H 		0.32584
H 1.0  		0.309143583945732 		0.8693313862194587  0.6728074403327443 		Uiso   ? 		H 		0.32584
H 1.0  		0.814176245210728 		0.3748979335468878  0.6808404291401132 		Uiso   ? 		H 		0.32584
H 1.0  		0.8147650901325294 		0.8775752151246782  0.6844106463878328 		Uiso   ? 		H 		0.32584
H 1.0  		0.5666650964135419 		0.12581653162489795  0.6903015048465699 		Uiso   ? 		H 		0.32584
H 1.0  		0.31208780855473905 		0.3694020476100747  0.6772702118923937 		Uiso   ? 		H 		0.32584
H 1.0  		0.06281012499214869 		0.6259421518748822  0.682447026901587 		Uiso   ? 		H 		0.32584
H 1.0  		0.03572325858928457 		0.38804880346711895  0.37772898480872563 		Uiso   ? 		H 		0.13392
H 1.0  		0.5364377237610704 		0.8889595502795051  0.37772898480872563 		Uiso   ? 		H 		0.13392
H 1.0  		0.28617863199547766 		0.14701494880974814  0.3718381263499885 		Uiso   ? 		H 		0.13392
H 1.0  		0.7680500596696187 		0.6467480057785315  0.3704100394509006 		Uiso   ? 		H 		0.13392
H 1.0  		0.7796306764650462 		0.14583725896614536  0.37415876756100613 		Uiso   ? 		H 		0.13392
H 1.0  		0.5417373280572828 		0.3825529175303059  0.3796926042949713 		Uiso   ? 		H 		0.13392
H 1.0  		0.2732240437158469 		0.6453740342943283  0.37005301772612864 		Uiso   ? 		H 		0.13392
H 1.0  		0.012562024998429693 		0.9023067018403368  0.37273068066191833 		Uiso   ? 		H 		0.13392
H 1.0  		0.03709723007348783 		0.39334840776333146  0.6847676681126047 		Uiso   ? 		H 		0.13414
H 1.0  		0.5274087682934488 		0.8954368444193205  0.6810189400024992 		Uiso   ? 		H 		0.13414
H 1.0  		0.29481502418189814 		0.13307895232711514  0.690122993984184 		Uiso   ? 		H 		0.13414
H 1.0  		0.7717794108410276 		0.6494959487469381  0.6783412770667095 		Uiso   ? 		H 		0.13414
H 1.0  		0.7939592362288801 		0.13504176873311977  0.6879808636355523 		Uiso   ? 		H 		0.13414
H 1.0  		0.5319232460272596 		0.3913855913573268  0.6845891572502187 		Uiso   ? 		H 		0.13414
H 1.0  		0.2846083788706739 		0.6438037811695245  0.6817329834520431 		Uiso   ? 		H 		0.13414
H 1.0  		0.03591954022988501 		0.897792224106526  0.682804048626359 		Uiso   ? 		H 		0.13414
H 1.0  		0.033171597261478544 		0.1026552980340431  0.29347185776254486 		Uiso   ? 		H 		0.11754
H 1.0  		0.5313344011054582 		0.6080805225802399  0.29043717310198325 		Uiso   ? 		H 		0.11754
H 1.0  		0.25143678160919536 		0.8542176998932229  0.2945429229368607 		Uiso   ? 		H 		0.11754
H 1.0  		0.7757050436530369 		0.3501664468312292  0.2915082382762991 		Uiso   ? 		H 		0.11754
H 1.0  		0.766872369826016 		0.8487218139564098  0.2913297274139131 		Uiso   ? 		H 		0.11754
H 1.0  		0.5226980089190377 		0.10402926951824636  0.2950784555240187 		Uiso   ? 		H 		0.11754
H 1.0  		0.27400917027824884 		0.3511478550342315  0.2965065424231065 		Uiso   ? 		H 		0.11754
H 1.0  		0.020217008981847837 		0.6025846366434269  0.28972312965243935 		Uiso   ? 		H 		0.11754
H 1.0  		0.9996623955781673 		0.10285157967464356  0.6035452257269854 		Uiso   ? 		H 		0.11744
H 1.0  		0.49266691790716655 		0.6057251428930344  0.6031882040022136 		Uiso   ? 		H 		0.11744
H 1.0  		0.24201526286037306 		0.8589284592676341  0.6033667148645995 		Uiso   ? 		H 		0.11744
H 1.0  		0.7466553608441681 		0.3570363042522455  0.6055088452132312 		Uiso   ? 		H 		0.11744
H 1.0  		0.7519549651403806 		0.8516660385654169  0.6028311822774416 		Uiso   ? 		H 		0.11744
H 1.0  		0.5048363796243955 		0.10304786131524403  0.6024741605526697 		Uiso   ? 		H 		0.11744
H 1.0  		0.24397807926637774 		0.35762514917404686  0.6031882040022136 		Uiso   ? 		H 		0.11744
H 1.0  		0.9733606557377049 		0.6182871678914641  0.5992609650297221 		Uiso   ? 		H 		0.11744
H 1.0  		0.08145688084919288 		0.25104421832799445  0.20975026330352203 		Uiso   ? 		H 		0.31238
H 1.0  		0.5902188932855977 		0.7735459456064318  0.21135686106499582 		Uiso   ? 		H 		0.31238
H 1.0  		0.3423151812072106 		0.028853401168268324  0.2159981434870312 		Uiso   ? 		H 		0.31238
H 1.0  		0.8349820991143772 		0.5175946862634258  0.20885770899159214 		Uiso   ? 		H 		0.31238
H 1.0  		0.8389077319263866 		0.029245964449469256  0.21099983934022384 		Uiso   ? 		H 		0.31238
H 1.0  		0.5929668362540041 		0.2694946925444382  0.21457005658794337 		Uiso   ? 		H 		0.31238
H 1.0  		0.33721185855159846 		0.5140616167326174  0.2122494153769257 		Uiso   ? 		H 		0.31238
H 1.0  		0.08871930155141006 		0.7690314678726211  0.2129634588264696 		Uiso   ? 		H 		0.31238
H 1.0  		0.19157088122605365 		0.21610608630111175  0.5814098787911245 		Uiso   ? 		H 		0.31184
H 1.0  		0.5770680233653666 		0.7548991897493876  0.5239293811028402 		Uiso   ? 		H 		0.31184
H 1.0  		0.3362304503485962 		0.013739714842032538  0.5217872507542084 		Uiso   ? 		H 		0.31184
H 1.0  		0.9335154826958106 		0.4612618554110923  0.5755190203323873 		Uiso   ? 		H 		0.31184
H 1.0  		0.9339080459770115 		0.9598172225362729  0.5762330637819312 		Uiso   ? 		H 		0.31184
H 1.0  		0.6836489542114189 		0.20766597575529178  0.5753405094700013 		Uiso   ? 		H 		0.31184
H 1.0  		0.4414374097104453 		0.47971232962753596  0.5799817918920367 		Uiso   ? 		H 		0.31184
H 1.0  		0.19215972614785498 		0.7248680987375166  0.5821239222406684 		Uiso   ? 		H 		0.31184
H 1.0  		0.11109540857986305 		0.24672602223478424  0.19618343776218783 		Uiso   ? 		H 		0.32035
H 1.0  		0.6178946046102632 		0.7633393002952076  0.19529088345025797 		Uiso   ? 		H 		0.32035
H 1.0  		0.3688132026882734 		0.02041329062244834  0.1993966332851354 		Uiso   ? 		H 		0.32035
H 1.0  		0.8603024307518372 		0.5064066327491992  0.1918991770649244 		Uiso   ? 		H 		0.32035
H 1.0  		0.8648169084856479 		0.01668393945103951  0.19314875310162627 		Uiso   ? 		H 		0.32035
H 1.0  		0.6153429432824571 		0.25339959801520007  0.19761152466127566 		Uiso   ? 		H 		0.32035
H 1.0  		0.36783179448527104 		0.5097434206394071  0.19903961156036346 		Uiso   ? 		H 		0.32035
H 1.0  		0.11560988631367372 		0.7633393002952076  0.19618343776218783 		Uiso   ? 		H 		0.32035
H 1.0  		0.19215972614785504 		0.22219081715972613  0.5521340973598243 		Uiso   ? 		H 		0.32038
H 1.0  		0.6045474530494316 		0.7495995854531751  0.5069708491761724 		Uiso   ? 		H 		0.32038
H 1.0  		0.36233590854845804 		0.0035330695308083662  0.5055427622770846 		Uiso   ? 		H 		0.32038
H 1.0  		0.9348894541800139 		0.4679354311915081  0.5439225976900695 		Uiso   ? 		H 		0.32038
H 1.0  		0.9374411155078197 		0.9660982350354878  0.547671325800175 		Uiso   ? 		H 		0.32038
H 1.0  		0.6826675460084166 		0.21237673512970293  0.5449936628643853 		Uiso   ? 		H 		0.32038
H 1.0  		0.44300766283524906 		0.48246027259594254  0.5499919670111927 		Uiso   ? 		H 		0.32038
H 1.0  		0.19392626091325918 		0.7287937315495259  0.5528481408093683 		Uiso   ? 		H 		0.32038
H 1.0  		0.1499591734187551 		0.2659616230136298  0.8316821078562631 		Uiso   ? 		H 		0.41399
H 1.0  		0.6441963444507255 		0.7696203127944224  0.8334672164801228 		Uiso   ? 		H 		0.41399
H 1.0  		0.39609635073173793 		0.021002135544249734  0.8266838037094558 		Uiso   ? 		H 		0.41399
H 1.0  		0.898577350668928 		0.5172021229822247  0.8306110426819472 		Uiso   ? 		H 		0.41399
H 1.0  		0.8993624772313297 		0.014524841404434396  0.8359663685535265 		Uiso   ? 		H 		0.41399
H 1.0  		0.6491033854657371 		0.262232271842221  0.8315035969938772 		Uiso   ? 		H 		0.41399
H 1.0  		0.3962926323723384 		0.5148467432950192  0.8286474231957016 		Uiso   ? 		H 		0.41399
H 1.0  		0.14897776521575273 		0.7660872432636141  0.8336457273425089 		Uiso   ? 		H 		0.41399
H 1.0  		0.1483889202939514 		0.2208168456755229  0.2915082382762991 		Uiso   ? 		H 		0.12549
H 1.0  		0.6388967401545129 		0.7115209471766849  0.2879380210285796 		Uiso   ? 		H 		0.12549
H 1.0  		0.39354468940393184 		0.9590320959738711  0.28775951016619367 		Uiso   ? 		H 		0.12549
H 1.0  		0.8881744237171033 		0.4618507003328937  0.2857958906799479 		Uiso   ? 		H 		0.12549
H 1.0  		0.8852301991080961 		0.9596209408956725  0.2841892929184741 		Uiso   ? 		H 		0.12549
H 1.0  		0.6457665975755292 		0.21237673512970293  0.29204377086345706 		Uiso   ? 		H 		0.12549
H 1.0  		0.3923669995603291 		0.4640097983794988  0.2932933469001589 		Uiso   ? 		H 		0.12549
H 1.0  		0.13994880974813134 		0.7156428616292947  0.28990164051482537 		Uiso   ? 		H 		0.12549
H 1.0  		0.08086803592739149 		0.242800389422775  0.5644513468644567 		Uiso   ? 		H 		0.12498
H 1.0  		0.6514587651529427 		0.7287937315495259  0.6031882040022136 		Uiso   ? 		H 		0.12498
H 1.0  		0.3972740405753407 		0.9717904026129012  0.6024741605526697 		Uiso   ? 		H 		0.12498
H 1.0  		0.8285048049745619 		0.5060140694679982  0.5632017708277549 		Uiso   ? 		H 		0.12498
H 1.0  		0.8355709440361786 		0.014917404685635325  0.5660579446259305 		Uiso   ? 		H 		0.12498
H 1.0  		0.5770680233653666 		0.24849255700018844  0.5665934772130884 		Uiso   ? 		H 		0.12498
H 1.0  		0.3295568745681804 		0.4940408893913699  0.5633802816901409 		Uiso   ? 		H 		0.12498
H 1.0  		0.08008290936498959 		0.7480293323283713  0.5608811296167372 		Uiso   ? 		H 		0.12498
H 1.0  		0.9242902455875887 		0.38471201557691104  0.3511308663132152 		Uiso   ? 		H 		0.12143
H 1.0  		0.421024119087997 		0.8864078889516991  0.3432763883682322 		Uiso   ? 		H 		0.12143
H 1.0  		0.17606463161861693 		0.1372008667797249  0.3463110730287938 		Uiso   ? 		H 		0.12143
H 1.0  		0.6650021983543748 		0.627119841718485  0.3282814759278102 		Uiso   ? 		H 		0.12143
H 1.0  		0.6724609006971924 		0.13406036053011747  0.3530944857994609 		Uiso   ? 		H 		0.12143
H 1.0  		0.42318321713460216 		0.3898153382325231  0.35005980113889934 		Uiso   ? 		H 		0.12143
H 1.0  		0.16742823943219645 		0.6381116135921111  0.3391706385333548 		Uiso   ? 		H 		0.12143
H 1.0  		0.9199720494943786 		0.8793417498900824  0.3338153126617755 		Uiso   ? 		H 		0.12143
H 1.0  		0.9268419069153949 		0.39197443627912826  0.6644174298006034 		Uiso   ? 		H 		0.12110
H 1.0  		0.42377206205640344 		0.8854264807486968  0.6620967885895858 		Uiso   ? 		H 		0.12110
H 1.0  		0.17390553357201183 		0.1399488097481314  0.6590621039290242 		Uiso   ? 		H 		0.12110
H 1.0  		0.6726571823377929 		0.6396818667169147  0.6572769953051644 		Uiso   ? 		H 		0.12110
H 1.0  		0.6712832108535897 		0.13504176873311977  0.6447812349381461 		Uiso   ? 		H 		0.12110
H 1.0  		0.4233794987752026 		0.38157150932730355  0.651743158571199 		Uiso   ? 		H 		0.12110
H 1.0  		0.17174643552540667 		0.6369339237485083  0.6451382566629179 		Uiso   ? 		H 		0.12110
H 1.0  		0.9237014006657874 		0.889352113560706  0.6490654956354095 		Uiso   ? 		H 		0.12110
H 1.0  		0.9448998178506376 		0.29540386910369953  0.3736232349738482 		Uiso   ? 		H 		0.45910
H 1.0  		0.4502700835374662 		0.7970997424784876  0.37755047394633967 		Uiso   ? 		H 		0.45910
H 1.0  		0.2013849632560769 		0.046518748822310156  0.3746943001481641 		Uiso   ? 		H 		0.45910
H 1.0  		0.69679982413165 		0.5464480874316939  0.37558685446009393 		Uiso   ? 		H 		0.45910
H 1.0  		0.7032771182714654 		0.04808900194711388  0.37630089790963783 		Uiso   ? 		H 		0.45910
H 1.0  		0.44614816908485655 		0.30305885308711766  0.37665791963440975 		Uiso   ? 		H 		0.45910
H 1.0  		0.19490766911626153 		0.5539067897745117  0.3729091915243043 		Uiso   ? 		H 		0.45910
H 1.0  		0.9537324916776585 		0.7988662772438918  0.37612238704725187 		Uiso   ? 		H 		0.45910
H 1.0  		0.9533399283964576 		0.30305885308711766  0.6869097984612363 		Uiso   ? 		H 		0.45905
H 1.0  		0.44889611205326296 		0.7972960241190881  0.6861957550116925 		Uiso   ? 		H 		0.45905
H 1.0  		0.1974593304440676 		0.05162207147792225  0.6851246898373766 		Uiso   ? 		H 		0.45905
H 1.0  		0.702688273349664 		0.5501774386031029  0.6883378853603241 		Uiso   ? 		H 		0.45905
H 1.0  		0.7019031467872622 		0.04808900194711388  0.6854817115621485 		Uiso   ? 		H 		0.45905
H 1.0  		0.4502700835374663 		0.29638527730670183  0.6869097984612363 		Uiso   ? 		H 		0.45905
H 1.0  		0.19981471013127314 		0.5513551284467056  0.6836966029382888 		Uiso   ? 		H 		0.45905
H 1.0  		0.9490217323032474 		0.8043621631807047  0.6820900051768151 		Uiso   ? 		H 		0.45905
H 1.0  		0.06830601092896171 		0.34604453237861943  0.22902943644120743 		Uiso   ? 		H 		0.30854
H 1.0  		0.57432008039696 		0.8383188870045851  0.21796176297327696 		Uiso   ? 		H 		0.30854
H 1.0  		0.3236684253501665 		0.09441146912882357  0.22456666488155805 		Uiso   ? 		H 		0.30854
H 1.0  		0.8196721311475411 		0.5943408077382074  0.224745175743944 		Uiso   ? 		H 		0.30854
H 1.0  		0.8247754538031531 		0.09146724451981661  0.2220675128081544 		Uiso   ? 		H 		0.30854
H 1.0  		0.5735349538345582 		0.3372118585515985  0.21171388278976777 		Uiso   ? 		H 		0.30854
H 1.0  		0.3220981722253627 		0.5884523585201935  0.21564112176225925 		Uiso   ? 		H 		0.30854
H 1.0  		0.07517586834997797 		0.8424408014571949  0.2242096431567861 		Uiso   ? 		H 		0.30854
H 1.0  		0.07164279881916963 		0.34781106714402366  0.5308913047358933 		Uiso   ? 		H 		0.31194
H 1.0  		0.5660762514917405 		0.8465627159098047  0.5207161855798925 		Uiso   ? 		H 		0.31194
H 1.0  		0.32700521324037435 		0.09931851014383519  0.5378532283689462 		Uiso   ? 		H 		0.31194
H 1.0  		0.820064694428742 		0.5912003014886  0.5262500223138579 		Uiso   ? 		H 		0.31194
H 1.0  		0.8237940456001508 		0.09107468123861567  0.5233938485156822 		Uiso   ? 		H 		0.31194
H 1.0  		0.5741237987563595 		0.3468296589410213  0.5364251414698584 		Uiso   ? 		H 		0.31194
H 1.0  		0.32406098863136734 		0.6014069467998242  0.5299987504239633 		Uiso   ? 		H 		0.31194
H 1.0  		0.06948370077256448 		0.8416556748947931  0.525893000589086 		Uiso   ? 		H 		0.31194
H 1.0  		0.07556843163117892 		0.34525940581621756  0.8368589228654564 		Uiso   ? 		H 		0.31017
H 1.0  		0.5709832925067521 		0.8485255323158094  0.8345382816544387 		Uiso   ? 		H 		0.31017
H 1.0  		0.32661264995917344 		0.09637428553482821  0.8434638247737375 		Uiso   ? 		H 		0.31017
H 1.0  		0.8247754538031531 		0.5892374850825953  0.7884824791588568 		Uiso   ? 		H 		0.31017
H 1.0  		0.8324304377865712 		0.10520695936184914  0.8539959656545101 		Uiso   ? 		H 		0.31017
H 1.0  		0.5725535456315558 		0.3431003077696125  0.8352523251039827 		Uiso   ? 		H 		0.31017
H 1.0  		0.3297531562087808 		0.5984627221908172  0.8500687266820186 		Uiso   ? 		H 		0.31017
H 1.0  		0.07478330506877703 		0.8467589975504052  0.8388225423517022 		Uiso   ? 		H 		0.31017
H 1.0  		0.06202499842974686 		0.3776458765152943  0.22992199075313735 		Uiso   ? 		H 		0.31937
H 1.0  		0.5613654921173293 		0.86992023114126  0.21938984987236476 		Uiso   ? 		H 		0.31937
H 1.0  		0.3144431882419446 		0.12640537654669934  0.22385262143201415 		Uiso   ? 		H 		0.31937
H 1.0  		0.8112320206017211 		0.6247644620312794  0.22117495849622454 		Uiso   ? 		H 		0.31937
H 1.0  		0.816727906538534 		0.12346115193769236  0.22438815401917206 		Uiso   ? 		H 		0.31937
H 1.0  		0.5613654921173293 		0.3690094843288738  0.21564112176225925 		Uiso   ? 		H 		0.31937
H 1.0  		0.3114989636329376 		0.6202499842974688  0.21349899141362752 		Uiso   ? 		H 		0.31937
H 1.0  		0.06653947616355751 		0.8748272721562717  0.2197468715971367 		Uiso   ? 		H 		0.31937
H 1.0  		0.06614691288235662 		0.38157150932730355  0.5342830111212268 		Uiso   ? 		H 		0.32460
H 1.0  		0.5609729288361285 		0.8789491866088813  0.5250004462771559 		Uiso   ? 		H 		0.32460
H 1.0  		0.3154245964449469 		0.12915331951510584  0.5303557721487353 		Uiso   ? 		H 		0.32460
H 1.0  		0.8082877959927142 		0.6218202374222725  0.5239293811028402 		Uiso   ? 		H 		0.32460
H 1.0  		0.8177093147415364 		0.12346115193769236  0.5282136418001036 		Uiso   ? 		H 		0.32460
H 1.0  		0.5647022800075372 		0.38059010112430125  0.5358896088827005 		Uiso   ? 		H 		0.32460
H 1.0  		0.31522831480434643 		0.632615727655298  0.5298202395615773 		Uiso   ? 		H 		0.32460
H 1.0  		0.05908077382073985 		0.8738458639532694  0.5269640657634017 		Uiso   ? 		H 		0.32460
H 1.0  		0.06457665975755289 		0.3774495948746938  0.8347167925168247 		Uiso   ? 		H 		0.31770
H 1.0  		0.5615617737579298 		0.8795380315306828  0.8354308359663686 		Uiso   ? 		H 		0.31770
H 1.0  		0.31738741285095157 		0.12895703787450538  0.8452489333975973 		Uiso   ? 		H 		0.31770
H 1.0  		0.8181018780227374 		0.6222128007034734  0.7831271532872776 		Uiso   ? 		H 		0.31770
H 1.0  		0.8171204698197351 		0.13190126248351236  0.8427497813241936 		Uiso   ? 		H 		0.31770
H 1.0  		0.5641134350857359 		0.3752904968280887  0.8359663685535265 		Uiso   ? 		H 		0.31770
H 1.0  		0.3118915269141385 		0.6251570253124804  0.8406076509755619 		Uiso   ? 		H 		0.31770
H 1.0  		0.063791533195151 		0.8769863702028767  0.8381084989021583 		Uiso   ? 		H 		0.31770
H 1.0  		0.8895483952013065 		0.2108064820048992  0.44431353647869476 		Uiso   ? 		H 		0.12895
H 1.0  		0.4039476163557565 		0.7442999811569625  0.44752673200164234 		Uiso   ? 		H 		0.12895
H 1.0  		0.14937032849695367 		0.9867078072985366  0.44752673200164234 		Uiso   ? 		H 		0.12895
H 1.0  		0.646944287419132 		0.47205734564411783  0.4516324818365198 		Uiso   ? 		H 		0.12895
H 1.0  		0.649495948746938 		0.9768937252685134  0.44859779717595816 		Uiso   ? 		H 		0.12895
H 1.0  		0.3966851956535394 		0.2208168456755229  0.449490351487888 		Uiso   ? 		H 		0.12895
H 1.0  		0.14897776521575276 		0.4763755417373281  0.44931184062550206 		Uiso   ? 		H 		0.12895
H 1.0  		0.8960256893411219 		0.7232978456127128  0.44609864510255454 		Uiso   ? 		H 		0.12895
H 1.0  		0.8968108159035237 		0.22592016833113499  0.7576000999660829 		Uiso   ? 		H 		0.12785
H 1.0  		0.40041454682494815 		0.7325230827209347  0.7584926542780128 		Uiso   ? 		H 		0.12785
H 1.0  		0.07772752967778401 		0.9719866842535018  0.7210053731769578 		Uiso   ? 		H 		0.12785
H 1.0  		0.6547955530431505 		0.4857970604861504  0.7622413823881183 		Uiso   ? 		H 		0.12785
H 1.0  		0.6504773569499402 		0.984744990892532  0.7606347846266446 		Uiso   ? 		H 		0.12785
H 1.0  		0.3301457194899818 		0.22219081715972613  0.7226119709384317 		Uiso   ? 		H 		0.12785
H 1.0  		0.14956661013755415 		0.48049745618993783  0.7567075456541531 		Uiso   ? 		H 		0.12785
H 1.0  		0.889352113560706 		0.7193722128007035  0.7504596654706439 		Uiso   ? 		H 		0.12785
H 1.0  		0.17213899880660763 		0.21728377614471453  0.2527713811385423 		Uiso   ? 		H 		0.12309
H 1.0  		0.6650021983543748 		0.7083804409270775  0.25241435941377033 		Uiso   ? 		H 		0.12309
H 1.0  		0.41984642924439414 		0.9613874756610765  0.2490226530284368 		Uiso   ? 		H 		0.12309
H 1.0  		0.9150650084793669 		0.4596916022862886  0.24920116389082275 		Uiso   ? 		H 		0.12309
H 1.0  		0.9129059104327617 		0.9602097858174738  0.24634499009264713 		Uiso   ? 		H 		0.12309
H 1.0  		0.671872055775391 		0.21375070661390616  0.25402095717524414 		Uiso   ? 		H 		0.12309
H 1.0  		0.41807989447898997 		0.4612618554110923  0.254556489762402 		Uiso   ? 		H 		0.12309
H 1.0  		0.1670356761509955 		0.7099506940518812  0.25080776165229657 		Uiso   ? 		H 		0.12309
H 1.0  		0.10540324100244959 		0.24476320582877964  0.5274995983505597 		Uiso   ? 		H 		0.12382
H 1.0  		0.6728534639783933 		0.7303639846743296  0.5649868794516146 		Uiso   ? 		H 		0.12382
H 1.0  		0.42239809057220024 		0.9680610514414925  0.5639158142772988 		Uiso   ? 		H 		0.12382
H 1.0  		0.8526474467684192 		0.507584322592802  0.52482193541477 		Uiso   ? 		H 		0.12382
H 1.0  		0.85304001004962 		0.004318196093210226  0.5267855549010158 		Uiso   ? 		H 		0.12382
H 1.0  		0.6008181018780228 		0.24829627535958795  0.5280351309377176 		Uiso   ? 		H 		0.12382
H 1.0  		0.35468092456503986 		0.4946297343131713  0.52482193541477 		Uiso   ? 		H 		0.12382
H 1.0  		0.10383298787764585 		0.7417483198291565  0.5241078919652261 		Uiso   ? 		H 		0.12382
H 1.0  		0.0017665347654041718 		0.1845047421644369  0.2370624252485764 		Uiso   ? 		H 		0.31725
H 1.0  		0.49914421204698195 		0.6905188116324351  0.2354558274871026 		Uiso   ? 		H 		0.31725
H 1.0  		0.2985443753533069 		0.9299824131650023  0.2408111533586819 		Uiso   ? 		H 		0.31725
H 1.0  		0.7615727655298035 		0.44143740971044537  0.23688391438619041 		Uiso   ? 		H 		0.31725
H 1.0  		0.755095471389988 		0.9374411155078198  0.2363483817990325 		Uiso   ? 		H 		0.31725
H 1.0  		0.5093508573582062 		0.18823409333584573  0.23741944697334835 		Uiso   ? 		H 		0.31725
H 1.0  		0.26301739840462285 		0.44241881791344767  0.24402434888162947 		Uiso   ? 		H 		0.31725
H 1.0  		0.01766534765404179 		0.6928741913196407  0.2363483817990325 		Uiso   ? 		H 		0.31725
H 1.0  		0.041807989447898986 		0.1845047421644369  0.5503489887359646 		Uiso   ? 		H 		0.31649
H 1.0  		0.5529253815715094 		0.6779567866340055  0.5558828254699298 		Uiso   ? 		H 		0.31649
H 1.0  		0.2944224609006972 		0.9339080459770116  0.5512415430478945 		Uiso   ? 		H 		0.31649
H 1.0  		0.8006328120092959 		0.4302493561962189  0.5521340973598243 		Uiso   ? 		H 		0.31649
H 1.0  		0.7941555178694806 		0.931552666289806  0.5496349452864208 		Uiso   ? 		H 		0.31649
H 1.0  		0.5531216632121099 		0.18097167263362857  0.5530266516717542 		Uiso   ? 		H 		0.31649
H 1.0  		0.2932447710570944 		0.4331935808052258  0.5489209018368768 		Uiso   ? 		H 		0.31649
H 1.0  		0.06752088436655984 		0.6540104264807487  0.5655224120387726 		Uiso   ? 		H 		0.31649
H 1.0  		0.010991771873626018 		0.18980434646064948  0.26740927185419233 		Uiso   ? 		H 		0.31925
H 1.0  		0.5013033100935871 		0.6930704729602413  0.26580267409271857 		Uiso   ? 		H 		0.31925
H 1.0  		0.29108567301048927 		0.9335154826958106  0.27080097823952587 		Uiso   ? 		H 		0.31925
H 1.0  		0.7660872432636141 		0.43927831166384024  0.2683018261661222 		Uiso   ? 		H 		0.31925
H 1.0  		0.7570582877959927 		0.9401890584762265  0.2670522501294204 		Uiso   ? 		H 		0.31925
H 1.0  		0.5079768858740029 		0.19196344450725458  0.26794480444135027 		Uiso   ? 		H 		0.31925
H 1.0  		0.2645876515294266 		0.44241881791344767  0.27419268462485946 		Uiso   ? 		H 		0.31925
H 1.0  		0.01688022109163993 		0.6944444444444444  0.26723076099180637 		Uiso   ? 		H 		0.31925
H 1.0  		0.03827491991709062 		0.18548615036743923  0.5821239222406684 		Uiso   ? 		H 		0.31960
H 1.0  		0.5476257772752968 		0.6799196030400101  0.5855156286260019 		Uiso   ? 		H 		0.31960
H 1.0  		0.2934410526976948 		0.9339080459770116  0.5810528570663525 		Uiso   ? 		H 		0.31960
H 1.0  		0.7847339991206583 		0.43751177689843607  0.5790892375801068 		Uiso   ? 		H 		0.31960
H 1.0  		0.7914075749010739 		0.9341043276176121  0.5806958353415806 		Uiso   ? 		H 		0.31960
H 1.0  		0.5433075811820866 		0.1845047421644369  0.5824809439654404 		Uiso   ? 		H 		0.31960
H 1.0  		0.2918707995728912 		0.43437127064882863  0.5796247701672647 		Uiso   ? 		H 		0.31960
H 1.0  		0.05338860624332639 		0.6651984799949752  0.5915849979471252 		Uiso   ? 		H 		0.31960
H 1.0  		0.03572325858928459 		0.07654983983418127  0.2579481961477356 		Uiso   ? 		H 		0.11653
H 1.0  		0.5319232460272596 		0.5819750643803782  0.25312840286331423 		Uiso   ? 		H 		0.11653
H 1.0  		0.2494739652031907 		0.8261494252873564  0.2581267070101216 		Uiso   ? 		H 		0.11653
H 1.0  		0.7810046479492495 		0.3275940581621758  0.2511647833770685 		Uiso   ? 		H 		0.11653
H 1.0  		0.7751161987312355 		0.825560580365555  0.25259287027615634 		Uiso   ? 		H 		0.11653
H 1.0  		0.5256422335280447 		0.07851265624018593  0.2570556418358057 		Uiso   ? 		H 		0.11653
H 1.0  		0.2710649456692419 		0.32720149488097483  0.2581267070101216 		Uiso   ? 		H 		0.11653
H 1.0  		0.019628164060046447 		0.5782457132089693  0.25187882682661245 		Uiso   ? 		H 		0.11653
H 1.0  		0.9973070158909617 		0.07929778280258779  0.5676645423874044 		Uiso   ? 		H 		0.11854
H 1.0  		0.48874128509515735 		0.5811899378179762  0.5660579446259305 		Uiso   ? 		H 		0.11854
H 1.0  		0.23750078512656236 		0.8330192827083726  0.5651653903140006 		Uiso   ? 		H 		0.11854
H 1.0  		0.7403743483449532 		0.3307345644117832  0.5674860315250183 		Uiso   ? 		H 		0.11854
H 1.0  		0.7513661202185793 		0.82771967841216  0.5665934772130884 		Uiso   ? 		H 		0.11854
H 1.0  		0.49816280384397965 		0.0808680359273915  0.5662364554883166 		Uiso   ? 		H 		0.11854
H 1.0  		0.2392673198919666 		0.33387507066139066  0.5665934772130884 		Uiso   ? 		H 		0.11854
H 1.0  		0.9719866842535018 		0.5900226116449971  0.5632017708277549 		Uiso   ? 		H 		0.11854
H 1.0  		0.8905298034043088 		0.16997990076000252  0.19029257930345064 		Uiso   ? 		H 		0.11539
H 1.0  		0.3894227749513221 		0.6697129577287859  0.19475535086310003 		Uiso   ? 		H 		0.11539
H 1.0  		0.14426700584134158 		0.9180092330883738  0.19297024223924025 		Uiso   ? 		H 		0.11539
H 1.0  		0.6394855850763144 		0.4204352741661956  0.19368428568878418 		Uiso   ? 		H 		0.11539
H 1.0  		0.6388967401545128 		0.9193832045725772  0.19439832913832808 		Uiso   ? 		H 		0.11539
H 1.0  		0.3907967464355255 		0.17253156208780857  0.19314875310162627 		Uiso   ? 		H 		0.11539
H 1.0  		0.1385748382639281 		0.42023899252559516  0.19654045948695978 		Uiso   ? 		H 		0.11539
H 1.0  		0.8889595502795051 		0.6708906475723887  0.19493386172548602 		Uiso   ? 		H 		0.11539
H 1.0  		0.8909223666855097 		0.17135387224420578  0.4992948820935755 		Uiso   ? 		H 		0.12196
H 1.0  		0.39354468940393184 		0.6756014069467999  0.5044716971027687 		Uiso   ? 		H 		0.12196
H 1.0  		0.13720086677972484 		0.9211497393379813  0.4984023277816455 		Uiso   ? 		H 		0.12196
H 1.0  		0.6367376421079078 		0.4225943722128007  0.4928684910476803 		Uiso   ? 		H 		0.12196
H 1.0  		0.638111613592111 		0.9237014006657874  0.5039361645156109 		Uiso   ? 		H 		0.12196
H 1.0  		0.39197443627912826 		0.17312040700960996  0.49822381691925954 		Uiso   ? 		H 		0.12196
H 1.0  		0.13994880974813137 		0.42809025814961377  0.5082204252128742 		Uiso   ? 		H 		0.12196
H 1.0  		0.8871930155141008 		0.6697129577287859  0.4962601974330138 		Uiso   ? 		H 		0.12196
H 1.0  		0.8844450725456945 		0.17135387224420578  0.7922312072689623 		Uiso   ? 		H 		0.11624
H 1.0  		0.38176779096790403 		0.6669650147603794  0.7956229136542959 		Uiso   ? 		H 		0.11624
H 1.0  		0.13935996482632995 		0.9250753721499907  0.8065120762598404 		Uiso   ? 		H 		0.11624
H 1.0  		0.6381116135921111 		0.42514603354060676  0.8140095324800514 		Uiso   ? 		H 		0.11624
H 1.0  		0.638111613592111 		0.9274307518371961  0.8115103804066478 		Uiso   ? 		H 		0.11624
H 1.0  		0.3904041831543245 		0.17390553357201183  0.8136525107552794 		Uiso   ? 		H 		0.11624
H 1.0  		0.14191162615413602 		0.4223980905722003  0.8032988807368929 		Uiso   ? 		H 		0.11624
H 1.0  		0.8881744237171033 		0.671872055775391  0.8154376193791392 		Uiso   ? 		H 		0.11624
H 1.0  		0.923505119025187 		0.36194334526725713  0.1752976668630286 		Uiso   ? 		H 		0.11535
H 1.0  		0.42377206205640344 		0.8654057534074493  0.17868937324836215 		Uiso   ? 		H 		0.11535
H 1.0  		0.17272784372840902 		0.11345078826706866  0.14566486370695655 		Uiso   ? 		H 		0.11535
H 1.0  		0.6730497456189938 		0.613576408517053  0.15244827647762366 		Uiso   ? 		H 		0.11535
H 1.0  		0.6738348721813956 		0.11423591482947051  0.14780699405558828 		Uiso   ? 		H 		0.11535
H 1.0  		0.423575780415803 		0.359784247220652  0.1590531783859048 		Uiso   ? 		H 		0.11535
H 1.0  		0.17410181521261225 		0.6104359022674455  0.16119530873453652 		Uiso   ? 		H 		0.11535
H 1.0  		0.9264493436341938 		0.8648169084856479  0.17440511255109875 		Uiso   ? 		H 		0.11535
H 1.0  		0.9242902455875887 		0.3599805288612525  0.47180420928613503 		Uiso   ? 		H 		0.12317
H 1.0  		0.4214166823691978 		0.8632466553608441  0.47037612238704724 		Uiso   ? 		H 		0.12317
H 1.0  		0.17822372966522204 		0.11502104139187237  0.4693050572127314 		Uiso   ? 		H 		0.12317
H 1.0  		0.6738348721813956 		0.6143615350794548  0.47983719809350406 		Uiso   ? 		H 		0.12317
H 1.0  		0.6742274354625967 		0.11502104139187237  0.4782306003320302 		Uiso   ? 		H 		0.12317
H 1.0  		0.42396834369700404 		0.36194334526725713  0.4753744265338546 		Uiso   ? 		H 		0.12317
H 1.0  		0.17233528044720808 		0.6131838452358521  0.4816223067173638 		Uiso   ? 		H 		0.12317
H 1.0  		0.9237014006657874 		0.8622652471578418  0.47644549170817047 		Uiso   ? 		H 		0.12317
H 1.0  		0.9242902455875887 		0.36586897807926644  0.7770577839661543 		Uiso   ? 		H 		0.12491
H 1.0  		0.41984642924439414 		0.8681536963758558  0.7897320551955588 		Uiso   ? 		H 		0.12491
H 1.0  		0.17272784372840902 		0.11560988631367376  0.7833056641496635 		Uiso   ? 		H 		0.12491
H 1.0  		0.674816280384398 		0.6151466616418567  0.7763437405166105 		Uiso   ? 		H 		0.12491
H 1.0  		0.677367941712204 		0.11639501287607562  0.7738445884432068 		Uiso   ? 		H 		0.12491
H 1.0  		0.42652000502481 		0.36567269643866596  0.7777718274156983 		Uiso   ? 		H 		0.12491
H 1.0  		0.17076502732240437 		0.6184834495320646  0.7767007622413824 		Uiso   ? 		H 		0.12491
H 1.0  		0.92056089441618 		0.8663871616104516  0.7847337510487513 		Uiso   ? 		H 		0.12491
H 1.0  		0.07890521952138685 		0.24809999371898753  0.2538424463128581 		Uiso   ? 		H 		0.12686
H 1.0  		0.5835453175051818 		0.7629467370140067  0.25223584855138437 		Uiso   ? 		H 		0.12686
H 1.0  		0.33053828277118275 		0.003336787890207902  0.254556489762402 		Uiso   ? 		H 		0.12686
H 1.0  		0.8345895358331763 		0.5164169964198229  0.2511647833770685 		Uiso   ? 		H 		0.12686
H 1.0  		0.8349820991143772 		0.01805791093524276  0.25223584855138437 		Uiso   ? 		H 		0.12686
H 1.0  		0.5835453175051818 		0.2565401042648075  0.25473500062478804 		Uiso   ? 		H 		0.12686
H 1.0  		0.3291643112869794 		0.5024809999371899  0.25312840286331423 		Uiso   ? 		H 		0.12686
H 1.0  		0.07988662772438913 		0.7570582877959928  0.25259287027615634 		Uiso   ? 		H 		0.12686
H 1.0  		0.15152942654355883 		0.2247424784875322  0.6049733126260733 		Uiso   ? 		H 		0.13053
H 1.0  		0.5766754600841656 		0.750384712015577  0.5678430532497903 		Uiso   ? 		H 		0.13053
H 1.0  		0.3326973808177879 		0.010795490233025564  0.5649868794516146 		Uiso   ? 		H 		0.13053
H 1.0  		0.8928851830915144 		0.47009452923811323  0.5969403238187044 		Uiso   ? 		H 		0.13053
H 1.0  		0.8983810690283273 		0.9729680924565041  0.6010460736535819 		Uiso   ? 		H 		0.13053
H 1.0  		0.6453740342943283 		0.21218045348910244  0.6005105410664239 		Uiso   ? 		H 		0.13053
H 1.0  		0.4017885183091514 		0.47951604798693553  0.6014030953783539 		Uiso   ? 		H 		0.13053
H 1.0  		0.14937032849695367 		0.7258495069405189  0.6022956496902837 		Uiso   ? 		H 		0.13053
H 1.0  		0.8567693612210289 		0.25359587965580055  0.3691604634141988 		Uiso   ? 		H 		0.12353
H 1.0  		0.3503627284718296 		0.7291862948307267  0.37273068066191833 		Uiso   ? 		H 		0.12353
H 1.0  		0.10559952264305002 		0.9904371584699455  0.36862493082704084 		Uiso   ? 		H 		0.12353
H 1.0  		0.6033697632058288 		0.4950222975943722  0.37415876756100613 		Uiso   ? 		H 		0.12353
H 1.0  		0.6035660448464292 		0.9967181709691604  0.3705885503132866 		Uiso   ? 		H 		0.12353
H 1.0  		0.3501664468312292 		0.2463334589535833  0.3729091915243043 		Uiso   ? 		H 		0.12353
H 1.0  		0.10147760819044029 		0.4946297343131713  0.3716596154876024 		Uiso   ? 		H 		0.12353
H 1.0  		0.8520586018466177 		0.7401780667043528  0.3670183330655671 		Uiso   ? 		H 		0.12353
H 1.0  		0.85304001004962 		0.245352050750581  0.6785197879290955 		Uiso   ? 		H 		0.12416
H 1.0  		0.353895798002638 		0.7340933358457384  0.6799478748281834 		Uiso   ? 		H 		0.12416
H 1.0  		0.1723352804472081 		0.0013739714842032538  0.7202913297274139 		Uiso   ? 		H 		0.12416
H 1.0  		0.605136297971233 		0.48736731361095414  0.682982559488745 		Uiso   ? 		H 		0.12416
H 1.0  		0.607295396017838 		0.9861189623767352  0.6792338313786395 		Uiso   ? 		H 		0.12416
H 1.0  		0.42710884994661147 		0.2376970667671629  0.7224334600760456 		Uiso   ? 		H 		0.12416
H 1.0  		0.10010363670623702 		0.4940408893913699  0.6803048965529552 		Uiso   ? 		H 		0.12416
H 1.0  		0.8536288549714215 		0.7598062307643992  0.6758421249933059 		Uiso   ? 		H 		0.12416
H 1.0  		0.047892720306513384 		0.4245571886188053  0.4002213534693586 		Uiso   ? 		H 		0.31745
H 1.0  		0.5488034671188995 		0.9280195967589976  0.4014709295060605 		Uiso   ? 		H 		0.31745
H 1.0  		0.30129231832171344 		0.1817567991960304  0.39968582088220067 		Uiso   ? 		H 		0.31745
H 1.0  		0.7757050436530369 		0.6869857421016268  0.3925453863867616 		Uiso   ? 		H 		0.31745
H 1.0  		0.7898373217762704 		0.1835233339614346  0.40129241864367454 		Uiso   ? 		H 		0.31745
H 1.0  		0.5601878022737266 		0.4149393882293826  0.4062907227904818 		Uiso   ? 		H 		0.31745
H 1.0  		0.2912819546510897 		0.6828638276490171  0.3918313429372177 		Uiso   ? 		H 		0.31745
H 1.0  		0.026890584762263622 		0.9388150869920232  0.39433049501062145 		Uiso   ? 		H 		0.31745
H 1.0  		0.04985553671251804 		0.43162332768042205  0.7074385476356236 		Uiso   ? 		H 		0.31346
H 1.0  		0.5374191319640725 		0.9358708623830162  0.7017262000392724 		Uiso   ? 		H 		0.31346
H 1.0  		0.3193502292569562 		0.1621286351359839  0.7183277102411683 		Uiso   ? 		H 		0.31346
H 1.0  		0.7755087620124365 		0.6907150932730357  0.6958353415805353 		Uiso   ? 		H 		0.31346
H 1.0  		0.8139799635701276 		0.16939105583820113  0.7138649386815188 		Uiso   ? 		H 		0.31346
H 1.0  		0.5509625651655047 		0.42573487846240815  0.7063674824613078 		Uiso   ? 		H 		0.31346
H 1.0  		0.2999183468375102 		0.6787419131964073  0.7056534390117639 		Uiso   ? 		H 		0.31346
H 1.0  		0.04592990390050871 		0.9335154826958106  0.7070815259108517 		Uiso   ? 		H 		0.31346
H 1.0  		0.04004145468249479 		0.3968814772941398  0.1656580802941859 		Uiso   ? 		H 		0.41664
H 1.0  		0.54055963821368 		0.8970070975441242  0.1635159499455542 		Uiso   ? 		H 		0.41664
H 1.0  		0.2934410526976949 		0.15525877771496768  0.15244827647762366 		Uiso   ? 		H 		0.41664
H 1.0  		0.7908187299792727 		0.6504773569499404  0.15780360234920296 		Uiso   ? 		H 		0.41664
H 1.0  		0.7865005338860624 		0.14937032849695372  0.15119870044092185 		Uiso   ? 		H 		0.41664
H 1.0  		0.543896426103888 		0.39805916713774264  0.15726806976204502 		Uiso   ? 		H 		0.41664
H 1.0  		0.29206708121349156 		0.6494959487469381  0.1560184937253432 		Uiso   ? 		H 		0.41664
H 1.0  		0.0437708058539036 		0.9038769549651405  0.15476891768864137 		Uiso   ? 		H 		0.41664
H 1.0  		0.043378242572702695 		0.42671628666541045  0.4298541566254307 		Uiso   ? 		H 		0.31964
H 1.0  		0.535063752276867 		0.9331229194146096  0.42842606972634284 		Uiso   ? 		H 		0.31964
H 1.0  		0.2916745179322907 		0.18371961560203506  0.42914011317588674 		Uiso   ? 		H 		0.31964
H 1.0  		0.7798269581056466 		0.6873783053828277  0.4239632981666935 		Uiso   ? 		H 		0.31964
H 1.0  		0.7847339991206583 		0.18293448903963322  0.43074671093736056 		Uiso   ? 		H 		0.31964
H 1.0  		0.554888197977514 		0.41592079643238494  0.43574501508416785 		Uiso   ? 		H 		0.31964
H 1.0  		0.28657119527667857 		0.6858080522580241  0.42342776557953554 		Uiso   ? 		H 		0.31964
H 1.0  		0.030423654293071985 		0.9382262420702219  0.42556989592816724 		Uiso   ? 		H 		0.31964
H 1.0  		0.04887412850951571 		0.43162332768042205  0.7377853942412397 		Uiso   ? 		H 		0.32092
H 1.0  		0.5354563155580679 		0.9401890584762265  0.7322515575072744 		Uiso   ? 		H 		0.32092
H 1.0  		0.30345141636831857 		0.16997990076000252  0.7429622092504329 		Uiso   ? 		H 		0.32092
H 1.0  		0.7670686514666164 		0.6958184159286477  0.7249326121494494 		Uiso   ? 		H 		0.32092
H 1.0  		0.8057361346649081 		0.17410181521261228  0.7429622092504329 		Uiso   ? 		H 		0.32092
H 1.0  		0.5491960304001006 		0.4273051315872119  0.7376068833788536 		Uiso   ? 		H 		0.32092
H 1.0  		0.2954038691036995 		0.6816861378054142  0.7365358182045378 		Uiso   ? 		H 		0.32092
H 1.0  		0.04200427108849941 		0.9368522705860185  0.7363573073421518 		Uiso   ? 		H 		0.32092
H 1.0  		0.9955404811255575 		0.32307958042836504  0.4130741355611489 		Uiso   ? 		H 		0.11922
H 1.0  		0.49188179134476473 		0.8275233967715596  0.4139666898730788 		Uiso   ? 		H 		0.11922
H 1.0  		0.2492776835625903 		0.07949406444318825  0.4084328531391135 		Uiso   ? 		H 		0.11922
H 1.0  		0.7515624018591798 		0.5774605866465675  0.41146753779967515 		Uiso   ? 		H 		0.11922
H 1.0  		0.7543103448275863 		0.07478330506877709  0.41146753779967515 		Uiso   ? 		H 		0.11922
H 1.0  		0.4765718233779285 		0.3376044218327995  0.40861136400149956 		Uiso   ? 		H 		0.11922
H 1.0  		0.24888512028138934 		0.5776568682871679  0.40861136400149956 		Uiso   ? 		H 		0.11922
H 1.0  		0.00902895546762133 		0.8269345518497583  0.4082543422767276 		Uiso   ? 		H 		0.11922
H 1.0  		0.0015702531248036986 		0.3268089315997739  0.7227904818008177 		Uiso   ? 		H 		0.11639
H 1.0  		0.4999293386093838 		0.8294862131775643  0.7238615469751334 		Uiso   ? 		H 		0.11639
H 1.0  		0.23063092770554616 		0.08636392186420451  0.7185062211035542 		Uiso   ? 		H 		0.11639
H 1.0  		0.7586285409207966 		0.5807973745367754  0.7224334600760456 		Uiso   ? 		H 		0.11639
H 1.0  		0.7348784624081403 		0.08557879530180265  0.7206483514521859 		Uiso   ? 		H 		0.11639
H 1.0  		0.5009107468123862 		0.32582752339677157  0.7252896338742213 		Uiso   ? 		H 		0.11639
H 1.0  		0.2402487280949689 		0.5813862194585768  0.7170781342044664 		Uiso   ? 		H 		0.11639
H 1.0  		0.0011776898436027382 		0.8300750580993657  0.7193987754154841 		Uiso   ? 		H 		0.11639
H 1.0  		0.14014509138873188 		0.1717464355254067  0.34381192095539015 		Uiso   ? 		H 		0.12206
H 1.0  		0.6322231643740972 		0.6640207901513725  0.32738892161588035 		Uiso   ? 		H 		0.12206
H 1.0  		0.3868711136235161 		0.9211497393379813  0.344882986129706 		Uiso   ? 		H 		0.12206
H 1.0  		0.889352113560706 		0.4190613026819923  0.3480961816526536 		Uiso   ? 		H 		0.12206
H 1.0  		0.886407888951699 		0.9119245022297595  0.33006658455167 		Uiso   ? 		H 		0.12206
H 1.0  		0.6394855850763144 		0.167231957791596  0.3543440618361628 		Uiso   ? 		H 		0.12206
H 1.0  		0.387656240185918 		0.4233794987752026  0.3511308663132152 		Uiso   ? 		H 		0.12206
H 1.0  		0.13445292381131838 		0.671872055775391  0.3388136168085828 		Uiso   ? 		H 		0.12206
H 1.0  		0.13877111990452862 		0.17606463161861693  0.6570984844427784 		Uiso   ? 		H 		0.12213
H 1.0  		0.6373264870297092 		0.671872055775391  0.6567414627180064 		Uiso   ? 		H 		0.12213
H 1.0  		0.3882450851077193 		0.920168331134979  0.6653099841125333 		Uiso   ? 		H 		0.12213
H 1.0  		0.8922963381697131 		0.42514603354060676  0.6590621039290242 		Uiso   ? 		H 		0.12213
H 1.0  		0.8903335217637082 		0.9248790905093901  0.6540637997822168 		Uiso   ? 		H 		0.12213
H 1.0  		0.6385041768733121 		0.1689984925570002  0.6472803870115497 		Uiso   ? 		H 		0.12213
H 1.0  		0.3900116198731236 		0.4174910495571886  0.6512076259840411 		Uiso   ? 		H 		0.12213
H 1.0  		0.1370045851391244 		0.6716757741347906  0.6462093218372339 		Uiso   ? 		H 		0.12213
H 1.0  		0.9250753721499907 		0.1099177187362603  0.32239061746907305 		Uiso   ? 		H 		0.12323
H 1.0  		0.4163133597135858 		0.6153429432824571  0.32810296506542425 		Uiso   ? 		H 		0.12323
H 1.0  		0.17331668865021038 		0.8626578104390428  0.3141791177993181 		Uiso   ? 		H 		0.12323
H 1.0  		0.6738348721813956 		0.3570363042522455  0.3166782698727218 		Uiso   ? 		H 		0.12323
H 1.0  		0.6710869292129892 		0.8626578104390428  0.32131955229475717 		Uiso   ? 		H 		0.12323
H 1.0  		0.42494975190000633 		0.11246938006406633  0.31382209607454614 		Uiso   ? 		H 		0.12323
H 1.0  		0.17253156208780854 		0.36331731675146034  0.3263178564415645 		Uiso   ? 		H 		0.12323
H 1.0  		0.92056089441618 		0.6092582124238428  0.3177493350470376 		Uiso   ? 		H 		0.12323
H 1.0  		0.9248790905093901 		0.11580616795427423  0.6240739749013728 		Uiso   ? 		H 		0.12313
H 1.0  		0.4241646253376044 		0.6133801268764525  0.6365697352683911 		Uiso   ? 		H 		0.12313
H 1.0  		0.17292412536900945 		0.864424345204447  0.6305003659472679 		Uiso   ? 		H 		0.12313
H 1.0  		0.6765828151498022 		0.36194334526725713  0.6240739749013728 		Uiso   ? 		H 		0.12313
H 1.0  		0.6728534639783933 		0.8646206268450475  0.638176333029865 		Uiso   ? 		H 		0.12313
H 1.0  		0.42396834369700404 		0.10952515545505938  0.6394259090665667 		Uiso   ? 		H 		0.12313
H 1.0  		0.17567206833741597 		0.36076565542365435  0.629429300772952 		Uiso   ? 		H 		0.12313
H 1.0  		0.9246828088687897 		0.61652063312606  0.6305003659472679 		Uiso   ? 		H 		0.12313
H 1.0  		0.05024809999371897 		0.3007034733999121  0.2900801513772113 		Uiso   ? 		H 		0.45670
H 1.0  		0.5482146221970983 		0.7984737139626907  0.28918759706528147 		Uiso   ? 		H 		0.45670
H 1.0  		0.3028625714465172 		0.04514477733810691  0.28704546671664977 		Uiso   ? 		H 		0.45670
H 1.0  		0.7959220526348847 		0.5511588468061052  0.28758099930380765 		Uiso   ? 		H 		0.45670
H 1.0  		0.8023993467747002 		0.05103322655612085  0.28990164051482537 		Uiso   ? 		H 		0.45670
H 1.0  		0.5493923120407009 		0.29638527730670183  0.2918652600010711 		Uiso   ? 		H 		0.45670
H 1.0  		0.3008997550405125 		0.5497848753219019  0.2893661079276674 		Uiso   ? 		H 		0.45670
H 1.0  		0.050444381634319406 		0.8045584448213052  0.2881165318909656 		Uiso   ? 		H 		0.45670
H 1.0  		0.0539774511651278 		0.3060030776961246  0.6015816062407398 		Uiso   ? 		H 		0.45796
H 1.0  		0.5509625651655047 		0.8006328120092959  0.5994394758921081 		Uiso   ? 		H 		0.45796
H 1.0  		0.3005071917593116 		0.05260347968092457  0.59979649761688 		Uiso   ? 		H 		0.45796
H 1.0  		0.8029881916965016 		0.5511588468061052  0.59979649761688 		Uiso   ? 		H 		0.45796
H 1.0  		0.8069138245085108 		0.058295647258338044  0.6008675627911959 		Uiso   ? 		H 		0.45796
H 1.0  		0.551943973368507 		0.2979555304315056  0.60068905192881 		Uiso   ? 		H 		0.45796
H 1.0  		0.3014885999623139 		0.5486071854782991  0.5974758564058623 		Uiso   ? 		H 		0.45796
H 1.0  		0.054370014446328704 		0.8025956284153006  0.5983684107177922 		Uiso   ? 		H 		0.45796
H 1.0  		0.1733166886502104 		0.24338923434457635  0.41146753779967515 		Uiso   ? 		H 		0.12772
H 1.0  		0.6728534639783933 		0.7670686514666164  0.4111105160749032 		Uiso   ? 		H 		0.12772
H 1.0  		0.4273051315872119 		0.008636392186420452  0.4089683857262715 		Uiso   ? 		H 		0.12772
H 1.0  		0.9197757678537781 		0.48167514603354067  0.4034345489923062 		Uiso   ? 		H 		0.12772
H 1.0  		0.9256642170717919 		0.9957367627661581  0.4057551902033239 		Uiso   ? 		H 		0.12772
H 1.0  		0.6055288612524339 		0.2671393128572326  0.44788375372641426 		Uiso   ? 		H 		0.12772
H 1.0  		0.421024119087997 		0.5077806042334025  0.40914689658865744 		Uiso   ? 		H 		0.12772
H 1.0  		0.169783619119402 		0.7397855034231519  0.4087898748638855 		Uiso   ? 		H 		0.12772
H 1.0  		0.10559952264305006 		0.2747942968406507  0.7581356325532409 		Uiso   ? 		H 		0.12467
H 1.0  		0.59964041203442 		0.7564694428741914  0.7620628715257324 		Uiso   ? 		H 		0.12467
H 1.0  		0.35350323472143713 		0.021394698825450663  0.7593852085899426 		Uiso   ? 		H 		0.12467
H 1.0  		0.9290010049619999 		0.518576094466428  0.719934308002642 		Uiso   ? 		H 		0.12467
H 1.0  		0.8447961811444006 		0.01688022109163997  0.7599207411771006 		Uiso   ? 		H 		0.12467
H 1.0  		0.6037623264870298 		0.2553624144212047  0.7609918063514165 		Uiso   ? 		H 		0.12467
H 1.0  		0.3535032347214371 		0.5221091639972364  0.7567075456541531 		Uiso   ? 		H 		0.12467
H 1.0  		0.09971107342503609 		0.7680500596696187  0.7565290347917673 		Uiso   ? 		H 		0.12467
H 1.0  		0.8373374788015828 		0.28637491363607814  0.2488441421660508 		Uiso   ? 		H 		0.12392
H 1.0  		0.33171597261478547 		0.7770790151372402  0.25134329423945445 		Uiso   ? 		H 		0.12392
H 1.0  		0.0808680359273915 		0.022179825387852525  0.25187882682661245 		Uiso   ? 		H 		0.12392
H 1.0  		0.5839378807863829 		0.529960429621255  0.25241435941377033 		Uiso   ? 		H 		0.12392
H 1.0  		0.5833490358645814 		0.03022737265247158  0.25294989200092827 		Uiso   ? 		H 		0.12392
H 1.0  		0.3362304503485962 		0.2920670812134916  0.25437797890001607 		Uiso   ? 		H 		0.12392
H 1.0  		0.08636392186420448 		0.5419336096978834  0.25205733768899835 		Uiso   ? 		H 		0.12392
H 1.0  		0.8322341561459708 		0.7841451541988569  0.25294989200092827 		Uiso   ? 		H 		0.12392
H 1.0  		0.8338044092707746 		0.28539350543307584  0.5633802816901409 		Uiso   ? 		H 		0.12651
H 1.0  		0.3356416054267948 		0.7902298850574713  0.5642728360020708 		Uiso   ? 		H 		0.12651
H 1.0  		0.07713868475598268 		0.028853401168268324  0.5603455970295792 		Uiso   ? 		H 		0.12651
H 1.0  		0.5972850323472144 		0.5489997487595001  0.5612381513415092 		Uiso   ? 		H 		0.12651
H 1.0  		0.5809936561773759 		0.024731486715658564  0.5648083685892287 		Uiso   ? 		H 		0.12651
H 1.0  		0.33053828277118275 		0.2745980152000503  0.5671290098002464 		Uiso   ? 		H 		0.12651
H 1.0  		0.08597135858300356 		0.5382042585264745  0.5608811296167372 		Uiso   ? 		H 		0.12651
H 1.0  		0.8322341561459708 		0.7694240311538221  0.5642728360020708 		Uiso   ? 		H 		0.12651
H 1.0  		0.9867078072985366 		0.3122840901953395  0.2383120012852782 		Uiso   ? 		H 		0.31577
H 1.0  		0.470879655800515 		0.8129985553671253  0.24348881629447156 		Uiso   ? 		H 		0.31577
H 1.0  		0.20315149802148105 		0.07105395389736825  0.2422392402577697 		Uiso   ? 		H 		0.31577
H 1.0  		0.6901262483512343 		0.5774605866465675  0.2452739249183313 		Uiso   ? 		H 		0.31577
H 1.0  		0.74744048740657 		0.05731423905533572  0.2415251968082258 		Uiso   ? 		H 		0.31577
H 1.0  		0.4697019659569122 		0.42023899252559516  0.2929363251753869 		Uiso   ? 		H 		0.31577
H 1.0  		0.20648828591168897 		0.5668613780541424  0.24027562077152398 		Uiso   ? 		H 		0.31577
H 1.0  		0.9615837573016771 		0.8171204698197351  0.23920455559720813 		Uiso   ? 		H 		0.31577
H 1.0  		0.9747346272219083 		0.31326549839834184  0.5555258037451579 		Uiso   ? 		H 		0.31638
H 1.0  		0.46126185541109227 		0.8175130331009359  0.5528481408093683 		Uiso   ? 		H 		0.31638
H 1.0  		0.20217008981847875 		0.06928741913196407  0.5562398471947019 		Uiso   ? 		H 		0.31638
H 1.0  		0.7289900131901262 		0.5588138307895233  0.5485638801121049 		Uiso   ? 		H 		0.31638
H 1.0  		0.7150540167074932 		0.06771716600716035  0.5537406951212981 		Uiso   ? 		H 		0.31638
H 1.0  		0.4706833741599146 		0.31149896363293766  0.5501704778735786 		Uiso   ? 		H 		0.31638
H 1.0  		0.20531059606808616 		0.5715721374285535  0.5507060104607365 		Uiso   ? 		H 		0.31638
H 1.0  		0.9821933295647258 		0.8118208655235225  0.5478498366625609 		Uiso   ? 		H 		0.31638
H 1.0  		0.9912222850323472 		0.30875102066453114  0.2683018261661222 		Uiso   ? 		H 		0.32289
H 1.0  		0.4663651780667043 		0.814568808491929  0.27330013031292955 		Uiso   ? 		H 		0.32289
H 1.0  		0.21728377614471453 		0.06320268827334967  0.269908423927596 		Uiso   ? 		H 		0.32289
H 1.0  		0.6991552038188557 		0.5729461089127568  0.2736571520377015 		Uiso   ? 		H 		0.32289
H 1.0  		0.7415520381885561 		0.05652911249293386  0.27115799996429785 		Uiso   ? 		H 		0.32289
H 1.0  		0.47480528861252436 		0.3937409710445324  0.3093593245148968 		Uiso   ? 		H 		0.32289
H 1.0  		0.21944287419131964 		0.5631320268827336  0.2691943804780521 		Uiso   ? 		H 		0.32289
H 1.0  		0.9639391369888826 		0.8155502166949313  0.2706224673771399 		Uiso   ? 		H 		0.32289
H 1.0  		0.978856541674518 		0.31326549839834184  0.5855156286260019 		Uiso   ? 		H 		0.32478
H 1.0  		0.4702908108787136 		0.8129985553671253  0.5806958353415806 		Uiso   ? 		H 		0.32478
H 1.0  		0.2108064820048992 		0.07046510897556686  0.584801585176458 		Uiso   ? 		H 		0.32478
H 1.0  		0.7229052823315119 		0.5595989573519251  0.5783751941305629 		Uiso   ? 		H 		0.32478
H 1.0  		0.719175931160103 		0.06673575780415804  0.5837305200021422 		Uiso   ? 		H 		0.32478
H 1.0  		0.47205734564411783 		0.3109101187111363  0.5805173244791946 		Uiso   ? 		H 		0.32478
H 1.0  		0.21100276364549964 		0.5682353495383456  0.5801603027544227 		Uiso   ? 		H 		0.32478
H 1.0  		0.9810156397211232 		0.8116245838829219  0.5783751941305629 		Uiso   ? 		H 		0.32478
H 1.0  		0.9933813830789524 		0.4216129640097984  0.262589478569771 		Uiso   ? 		H 		0.11467
H 1.0  		0.5005181835311852 		0.9237014006657874  0.26348203288170086 		Uiso   ? 		H 		0.11467
H 1.0  		0.25850292067081215 		0.1711575906036053  0.25544904407433194 		Uiso   ? 		H 		0.11467
H 1.0  		0.7637318635764085 		0.6663761698385781  0.2572341526981917 		Uiso   ? 		H 		0.11467
H 1.0  		0.7313453928773319 		0.17135387224420578  0.254913511487174 		Uiso   ? 		H 		0.11467
H 1.0  		0.5044438163431946 		0.35036272847182964  0.21706920866134705 		Uiso   ? 		H 		0.11467
H 1.0  		0.256343822624207 		0.6703018026505874  0.25259287027615634 		Uiso   ? 		H 		0.11467
H 1.0  		0.9986809873751649 		0.9252716537905912  0.2565201092486478 		Uiso   ? 		H 		0.11467
H 1.0  		0.9912222850323472 		0.4263237233842096  0.5671290098002464 		Uiso   ? 		H 		0.11519
H 1.0  		0.5095471389988065 		0.9219348659003832  0.5674860315250183 		Uiso   ? 		H 		0.11519
H 1.0  		0.2565401042648075 		0.17331668865021044  0.562844749102983 		Uiso   ? 		H 		0.11519
H 1.0  		0.7429260096727593 		0.6726571823377929  0.5676645423874044 		Uiso   ? 		H 		0.11519
H 1.0  		0.7511698385779788 		0.17665347654041832  0.5694496510112641 		Uiso   ? 		H 		0.11519
H 1.0  		0.49718139564097735 		0.4229869354940016  0.5692711401488781 		Uiso   ? 		H 		0.11519
H 1.0  		0.26596162301362974 		0.6675538596821807  0.5633802816901409 		Uiso   ? 		H 		0.11519
H 1.0  		0.9955404811255574 		0.9254679354311915  0.5657009229011586 		Uiso   ? 		H 		0.11519
H 1.0  		0.11600244959487468 		0.3285754663651781  0.2234955997072422 		Uiso   ? 		H 		0.12101
H 1.0  		0.61652063312606 		0.8265419885685573  0.209928774165908 		Uiso   ? 		H 		0.12101
H 1.0  		0.3664578230010678 		0.07949406444318825  0.2136775022760135 		Uiso   ? 		H 		0.12101
H 1.0  		0.8654057534074493 		0.5776568682871679  0.2115353719273818 		Uiso   ? 		H 		0.12101
H 1.0  		0.8693313862194587 		0.07772752967778407  0.2167121869365751 		Uiso   ? 		H 		0.12101
H 1.0  		0.6167169147666604 		0.32720149488097483  0.21135686106499582 		Uiso   ? 		H 		0.12101
H 1.0  		0.36410244331386216 		0.5760866151623643  0.2106428176154519 		Uiso   ? 		H 		0.12101
H 1.0  		0.11855411092268069 		0.8257568620061554  0.21510558917510134 		Uiso   ? 		H 		0.12101
H 1.0  		0.11718013943847747 		0.3326973808177879  0.5235723593780681 		Uiso   ? 		H 		0.12891
H 1.0  		0.6114173104704479 		0.8300750580993657  0.5117906424605938 		Uiso   ? 		H 		0.12891
H 1.0  		0.36999089253187617 		0.08165316248979336  0.5244649136899981 		Uiso   ? 		H 		0.12891
H 1.0  		0.8640317819232461 		0.5764791784435651  0.5212517181670505 		Uiso   ? 		H 		0.12891
H 1.0  		0.866976006532253 		0.07674612147478174  0.5105410664238919 		Uiso   ? 		H 		0.12891
H 1.0  		0.6182871678914641 		0.3325010991771874  0.5273210874881737 		Uiso   ? 		H 		0.12891
H 1.0  		0.3654764147980654 		0.5823676276615791  0.517324479194559 		Uiso   ? 		H 		0.12891
H 1.0  		0.11423591482947046 		0.8267382702091577  0.5164319248826291 		Uiso   ? 		H 		0.12891
H 1.0  		0.12110577225048677 		0.33210853589598643  0.8334672164801228 		Uiso   ? 		H 		0.12526
H 1.0  		0.6143615350794548 		0.8330192827083726  0.8281118906085436 		Uiso   ? 		H 		0.12526
H 1.0  		0.36999089253187617 		0.08283085233339614  0.8366804120030705 		Uiso   ? 		H 		0.12526
H 1.0  		0.866976006532253 		0.5776568682871679  0.8038344133240508 		Uiso   ? 		H 		0.12526
H 1.0  		0.8697239495006596 		0.08832673827020916  0.8365019011406845 		Uiso   ? 		H 		0.12526
H 1.0  		0.61652063312606 		0.33093084605238365  0.8300755100947894 		Uiso   ? 		H 		0.12526
H 1.0  		0.3662615413604673 		0.5804048112555744  0.8295399775076314 		Uiso   ? 		H 		0.12526
H 1.0  		0.11718013943847742 		0.8330192827083726  0.8295399775076314 		Uiso   ? 		H 		0.12526
H 1.0  		0.08047547264619055 		0.13150869920231142  0.17422660168871276 		Uiso   ? 		H 		0.13241
H 1.0  		0.5786382764901702 		0.6341859807801018  0.17154893875292312 		Uiso   ? 		H 		0.13241
H 1.0  		0.3354453237861943 		0.8832673827020916  0.142451668184009 		Uiso   ? 		H 		0.13241
H 1.0  		0.8381226053639846 		0.3786272847182966  0.13548974455095594 		Uiso   ? 		H 		0.13241
H 1.0  		0.8373374788015828 		0.8818934112178884  0.13691783145004374 		Uiso   ? 		H 		0.13241
H 1.0  		0.5815825010991772 		0.13425664217071795  0.17101340616576519 		Uiso   ? 		H 		0.13241
H 1.0  		0.3293605929275799 		0.38785252182651847  0.1469144397436584 		Uiso   ? 		H 		0.13241
H 1.0  		0.07969034608378868 		0.6373264870297092  0.1522697656152377 		Uiso   ? 		H 		0.13241
H 1.0  		0.08204572577099427 		0.13739714842032535  0.4671629268640997 		Uiso   ? 		H 		0.13198
H 1.0  		0.5788345581307707 		0.6347748257019031  0.46073653581820456 		Uiso   ? 		H 		0.13198
H 1.0  		0.3264163683185729 		0.8889595502795051  0.4619861118549064 		Uiso   ? 		H 		0.13198
H 1.0  		0.8292899315369637 		0.38569342377991334  0.4671629268640997 		Uiso   ? 		H 		0.13198
H 1.0  		0.8294862131775643 		0.8850339174674959  0.45734482943287097 		Uiso   ? 		H 		0.13198
H 1.0  		0.5815825010991772 		0.1372008667797249  0.4560952533961692 		Uiso   ? 		H 		0.13198
H 1.0  		0.33132340933358456 		0.3849082972175115  0.45127546011174785 		Uiso   ? 		H 		0.13198
H 1.0  		0.08106431756799191 		0.6390930217951134  0.4587729163319588 		Uiso   ? 		H 		0.13198
H 1.0  		0.08224200741159474 		0.13739714842032535  0.7565290347917673 		Uiso   ? 		H 		0.13497
H 1.0  		0.5794234030525721 		0.6394855850763144  0.7722379906817329 		Uiso   ? 		H 		0.13497
H 1.0  		0.32936059292757985 		0.8842487909050939  0.7593852085899426 		Uiso   ? 		H 		0.13497
H 1.0  		0.8312527479429686 		0.39236699956032917  0.7588496760027849 		Uiso   ? 		H 		0.13497
H 1.0  		0.8269345518497583 		0.8881744237171033  0.7625984041128904 		Uiso   ? 		H 		0.13497
H 1.0  		0.5811899378179762 		0.13935996482633  0.7631339367000483 		Uiso   ? 		H 		0.13497
H 1.0  		0.3317159726147855 		0.3860859870611143  0.7549224370302934 		Uiso   ? 		H 		0.13497
H 1.0  		0.07890521952138682 		0.6434112178883237  0.7597422303147148 		Uiso   ? 		H 		0.13497
H 1.0  		0.9715941209723008 		0.4679354311915081  0.14495082025741268 		Uiso   ? 		H 		0.44836
H 1.0  		0.4759829784561271 		0.9660982350354878  0.14584337456934254 		Uiso   ? 		H 		0.44836
H 1.0  		0.22258338044092707 		0.21689121286351362  0.14370124422071084 		Uiso   ? 		H 		0.44836
H 1.0  		0.7236904088939137 		0.7126986370202877  0.14459379853264073 		Uiso   ? 		H 		0.44836
H 1.0  		0.7232978456127128 		0.21689121286351362  0.14387975508309683 		Uiso   ? 		H 		0.44836
H 1.0  		0.47048709251931403 		0.46832799447270906  0.1469144397436584 		Uiso   ? 		H 		0.44836
H 1.0  		0.2190503109101187 		0.7164279881916965  0.14066655956014926 		Uiso   ? 		H 		0.44836
H 1.0  		0.9747346272219082 		0.9690424596444948  0.1453078419821846 		Uiso   ? 		H 		0.44836
H 1.0  		0.20570315934928712 		0.20295521638088063  0.4435994930291508 		Uiso   ? 		H 		0.45872
H 1.0  		0.7038659631932668 		0.7017068651466617  0.44324247130437894 		Uiso   ? 		H 		0.45872
H 1.0  		0.4510552100998681 		0.9482366057408456  0.4441350256163088 		Uiso   ? 		H 		0.45872
H 1.0  		0.9519659569122543 		0.446344450725457  0.442528427854835 		Uiso   ? 		H 		0.45872
H 1.0  		0.9484328873814458 		0.9447035362100371  0.4441350256163088 		Uiso   ? 		H 		0.45872
H 1.0  		0.7062213428804723 		0.19981471013127317  0.4441350256163088 		Uiso   ? 		H 		0.45872
H 1.0  		0.451447773381069 		0.4498775202562653  0.4428854495796069 		Uiso   ? 		H 		0.45872
H 1.0  		0.20491803278688522 		0.7009217385842599  0.44199289526767704 		Uiso   ? 		H 		0.45872
H 1.0  		0.20884366559889456 		0.2041329062244834  0.749567111158714 		Uiso   ? 		H 		0.45041
H 1.0  		0.7036696815526663 		0.7099506940518812  0.7524232849568896 		Uiso   ? 		H 		0.45041
H 1.0  		0.4549808429118774 		0.9549101815212613  0.7484960459843981 		Uiso   ? 		H 		0.45041
H 1.0  		0.9578544061302683 		0.454391997990076  0.7477820025348543 		Uiso   ? 		H 		0.45041
H 1.0  		0.9521622385528546 		0.9600135041768734  0.7502811546082581 		Uiso   ? 		H 		0.45041
H 1.0  		0.70523993467747 		0.2080585390364927  0.749567111158714 		Uiso   ? 		H 		0.45041
H 1.0  		0.45831763080208526 		0.4534105897870737  0.7468894482229245 		Uiso   ? 		H 		0.45041
H 1.0  		0.20491803278688522 		0.7068101878022738  0.7488530677091702 		Uiso   ? 		H 		0.45041
H 1.0  		0.9217385842597827 		0.2353416870799573  0.2541994680376301 		Uiso   ? 		H 		0.12674
H 1.0  		0.4251460335406067 		0.74744048740657  0.25473500062478804 		Uiso   ? 		H 		0.12674
H 1.0  		0.17783116638402113 		0.006477294139815339  0.2541994680376301 		Uiso   ? 		H 		0.12674
H 1.0  		0.6693203944475851 		0.48383424408014575  0.2581267070101216 		Uiso   ? 		H 		0.12674
H 1.0  		0.6777605049934048 		0.9984847057345644  0.2527713811385423 		Uiso   ? 		H 		0.12674
H 1.0  		0.4169022046353873 		0.23691194020476103  0.25759117442296364 		Uiso   ? 		H 		0.12674
H 1.0  		0.16880221091639971 		0.49286319954776714  0.25062925078991055 		Uiso   ? 		H 		0.12674
H 1.0  		0.9248790905093901 		0.7519549651403806  0.25402095717524414 		Uiso   ? 		H 		0.12674
H 1.0  		0.9244865272281892 		0.24986652848439167  0.5667719880754744 		Uiso   ? 		H 		0.12740
H 1.0  		0.4231832171346021 		0.7427297280321588  0.5640943251396848 		Uiso   ? 		H 		0.12740
H 1.0  		0.17331668865021044 		0.001962816406004648  0.5667719880754744 		Uiso   ? 		H 		0.12740
H 1.0  		0.6661798881979776 		0.4773569499403304  0.5662364554883166 		Uiso   ? 		H 		0.12740
H 1.0  		0.6771716600716036 		0.007851265624018592  0.5655224120387726 		Uiso   ? 		H 		0.12740
H 1.0  		0.4253423151812072 		0.24574461403178194  0.5662364554883166 		Uiso   ? 		H 		0.12740
H 1.0  		0.16625054958859367 		0.47990861126813644  0.562666238240597 		Uiso   ? 		H 		0.12740
H 1.0  		0.9295898498838013 		0.7706017209974249  0.5574894232314037 		Uiso   ? 		H 		0.12740
H 1.0  		0.07988662772438916 		0.2745980152000503  0.4077188096895696 		Uiso   ? 		H 		0.12667
H 1.0  		0.5758903335217638 		0.7568620061553922  0.40664774451525376 		Uiso   ? 		H 		0.12667
H 1.0  		0.32818290308397713 		0.021590980466051127  0.41003945090058735 		Uiso   ? 		H 		0.12667
H 1.0  		0.8381226053639846 		0.5401670749324791  0.4014709295060605 		Uiso   ? 		H 		0.12667
H 1.0  		0.8349820991143772 		0.031208780855473905  0.4082543422767276 		Uiso   ? 		H 		0.12667
H 1.0  		0.6508699202311413 		0.25457728785880285  0.3709455720380585 		Uiso   ? 		H 		0.12667
H 1.0  		0.32445355191256825 		0.5213240374348346  0.4132526464235349 		Uiso   ? 		H 		0.12667
H 1.0  		0.08008290936498959 		0.7804158030274481  0.4077188096895696 		Uiso   ? 		H 		0.12667
H 1.0  		0.1554550593555681 		0.2616434269204196  0.6810189400024992 		Uiso   ? 		H 		0.12538
H 1.0  		0.6441963444507255 		0.7794343948244458  0.6856602224245346 		Uiso   ? 		H 		0.12538
H 1.0  		0.3968814772941398 		0.018843037497644623  0.6790553205162534 		Uiso   ? 		H 		0.12538
H 1.0  		0.8292899315369637 		0.5136690534514164  0.7147574929934486 		Uiso   ? 		H 		0.12538
H 1.0  		0.900343885434332 		0.021787262106651595  0.6851246898373766 		Uiso   ? 		H 		0.12538
H 1.0  		0.6461591608567301 		0.2798976194962628  0.682804048626359 		Uiso   ? 		H 		0.12538
H 1.0  		0.4021810815903523 		0.5107248288424094  0.6794123422410254 		Uiso   ? 		H 		0.12538
H 1.0  		0.15172570818415923 		0.775312480371836  0.6803048965529552 		Uiso   ? 		H 		0.12538
H 1.0  		0.9686498963632938 		0.06339896991395014  0.3948660275977794 		Uiso   ? 		H 		0.31922
H 1.0  		0.47264619056591917 		0.5590101124301238  0.4002213534693586 		Uiso   ? 		H 		0.31922
H 1.0  		0.21335814333270517 		0.8153539350543307  0.3945090058730074 		Uiso   ? 		H 		0.31922
H 1.0  		0.7633393002952076 		0.4167059229947868  0.4516324818365198 		Uiso   ? 		H 		0.31922
H 1.0  		0.7164279881916965 		0.8116245838829219  0.3970081579464111 		Uiso   ? 		H 		0.31922
H 1.0  		0.45851391244268574 		0.06791344764776082  0.3948660275977794 		Uiso   ? 		H 		0.31922
H 1.0  		0.21002135544249734 		0.31738741285095157  0.39825773398311287 		Uiso   ? 		H 		0.31922
H 1.0  		0.9772862885497143 		0.5623469003203317  0.3968296470840251 		Uiso   ? 		H 		0.31922
H 1.0  		0.967864769800892 		0.061043590226744555  0.6981559827915529 		Uiso   ? 		H 		0.31396
H 1.0  		0.4594953206456881 		0.5680390678977452  0.7069030150484658 		Uiso   ? 		H 		0.31396
H 1.0  		0.21021763708309774 		0.8177093147415364  0.7058319498741499 		Uiso   ? 		H 		0.31396
H 1.0  		0.7126986370202877 		0.3183688210539539  0.7065459933236938 		Uiso   ? 		H 		0.31396
H 1.0  		0.7162317065510961 		0.814176245210728  0.7076170584980096 		Uiso   ? 		H 		0.31396
H 1.0  		0.4685242761133095 		0.0630064066327492  0.7090451453970974 		Uiso   ? 		H 		0.31396
H 1.0  		0.20511431442748568 		0.32052791910055906  0.704760884699834 		Uiso   ? 		H 		0.31396
H 1.0  		0.9484328873814459 		0.5753014885999623  0.7108302540209572 		Uiso   ? 		H 		0.31396
H 1.0  		0.9717904026129012 		0.0630064066327492  0.4253913850657813 		Uiso   ? 		H 		0.32405
H 1.0  		0.47441272533132334 		0.5623469003203317  0.4293186240382727 		Uiso   ? 		H 		0.32405
H 1.0  		0.22219081715972608 		0.8131948370077257  0.42289223299237766 		Uiso   ? 		H 		0.32405
H 1.0  		0.7598062307643992 		0.38844136674831986  0.4664488834145558 		Uiso   ? 		H 		0.32405
H 1.0  		0.7160354249104957 		0.814176245210728  0.4268194719648691 		Uiso   ? 		H 		0.32405
H 1.0  		0.4591027573644872 		0.06889485585076315  0.4261054285153252 		Uiso   ? 		H 		0.32405
H 1.0  		0.214535833176308 		0.31719113121035114  0.42896160231350083 		Uiso   ? 		H 		0.32405
H 1.0  		0.9761085987061114 		0.5639171534451355  0.42699798282725504 		Uiso   ? 		H 		0.32405
H 1.0  		0.9698275862068966 		0.05927705546134037  0.7297524054338707 		Uiso   ? 		H 		0.32462
H 1.0  		0.46224326361409457 		0.5652911249293386  0.735643263892608 		Uiso   ? 		H 		0.32462
H 1.0  		0.2176763394259154 		0.8143725268513284  0.735464753030222 		Uiso   ? 		H 		0.32462
H 1.0  		0.7099506940518812 		0.3183688210539539  0.7376068833788536 		Uiso   ? 		H 		0.32462
H 1.0  		0.7099506940518812 		0.8182981596633377  0.7392134811403275 		Uiso   ? 		H 		0.32462
H 1.0  		0.4716647823629169 		0.06398781483575153  0.7388564594155556 		Uiso   ? 		H 		0.32462
H 1.0  		0.2133581433327052 		0.3152283148043465  0.7336796444063622 		Uiso   ? 		H 		0.32462
H 1.0  		0.9547138998806608 		0.5737312354751586  0.7402845463146434 		Uiso   ? 		H 		0.32462
H 1.0  		0.005495885936813005 		0.1717464355254067  0.4116460486620611 		Uiso   ? 		H 		0.11815
H 1.0  		0.4920780729853652 		0.674816280384398  0.4075402988271836 		Uiso   ? 		H 		0.11815
H 1.0  		0.24908140192198977 		0.923505119025187  0.4057551902033239 		Uiso   ? 		H 		0.11815
H 1.0  		0.7299714213931285 		0.3495776019094278  0.3705885503132866 		Uiso   ? 		H 		0.11815
H 1.0  		0.7535252182651843 		0.9207571760567804  0.4103964726253593 		Uiso   ? 		H 		0.11815
H 1.0  		0.4916855097041643 		0.17547578669681554  0.41271711383637694 		Uiso   ? 		H 		0.11815
H 1.0  		0.25241818981219777 		0.42514603354060676  0.4137881790106928 		Uiso   ? 		H 		0.11815
H 1.0  		0.9980921424533635 		0.674423717103197  0.40914689658865744 		Uiso   ? 		H 		0.11815
H 1.0  		0.9929888197977514 		0.17272784372840902  0.720112818865028 		Uiso   ? 		H 		0.11644
H 1.0  		0.49914421204698195 		0.6734423089001947  0.7170781342044664 		Uiso   ? 		H 		0.11644
H 1.0  		0.2561475409836065 		0.9211497393379813  0.7192202645530981 		Uiso   ? 		H 		0.11644
H 1.0  		0.7448888260787639 		0.4278939765090133  0.7197557971402561 		Uiso   ? 		H 		0.11644
H 1.0  		0.7547029081087872 		0.922719992462785  0.7206483514521859 		Uiso   ? 		H 		0.11644
H 1.0  		0.49875164876578104 		0.17370925193141135  0.7229689926632036 		Uiso   ? 		H 		0.11644
H 1.0  		0.24829627535958793 		0.42475347025940585  0.7193987754154841 		Uiso   ? 		H 		0.11644
H 1.0  		0.0023553796872055363 		0.6763865335092017  0.7204698405897999 		Uiso   ? 		H 		0.11644
H 1.0  		0.8642280635638465 		0.32563124175617114  0.3520234206251451 		Uiso   ? 		H 		0.12722
H 1.0  		0.362335908548458 		0.8273271151309591  0.35952087684535605 		Uiso   ? 		H 		0.12722
H 1.0  		0.11678757615727656 		0.07890521952138686  0.36059194201967193 		Uiso   ? 		H 		0.12722
H 1.0  		0.6131838452358521 		0.5778531499277684  0.3691604634141988 		Uiso   ? 		H 		0.12722
H 1.0  		0.6151466616418567 		0.07223164374097105  0.3568432139095664 		Uiso   ? 		H 		0.12722
H 1.0  		0.362728471829659 		0.328968029646379  0.3621985397811457 		Uiso   ? 		H 		0.12722
H 1.0  		0.10972143709565979 		0.5794234030525721  0.360056409432514 		Uiso   ? 		H 		0.12722
H 1.0  		0.8671722881728535 		0.8263457069279568  0.3718381263499885 		Uiso   ? 		H 		0.12722
H 1.0  		0.8689388229382576 		0.331912254255386  0.6738785055070601 		Uiso   ? 		H 		0.12810
H 1.0  		0.36312103511085986 		0.825953143646756  0.6658455166996912 		Uiso   ? 		H 		0.12810
H 1.0  		0.11502104139187237 		0.0808680359273915  0.6760206358556918 		Uiso   ? 		H 		0.12810
H 1.0  		0.6167169147666604 		0.5774605866465675  0.6708438208464985 		Uiso   ? 		H 		0.12810
H 1.0  		0.6228016456252748 		0.0808680359273915  0.6847676681126047 		Uiso   ? 		H 		0.12810
H 1.0  		0.36567269643866596 		0.323472143709566  0.6701297773969547 		Uiso   ? 		H 		0.12810
H 1.0  		0.1103102820174612 		0.5786382764901702  0.6617397668648137 		Uiso   ? 		H 		0.12810
H 1.0  		0.8685462596570568 		0.8302713397399663  0.6736999946446742 		Uiso   ? 		H 		0.12810
H 1.0  		0.0800829093649896 		0.38549714213931285  0.30150484656991383 		Uiso   ? 		H 		0.13081
H 1.0  		0.5766754600841656 		0.8844450725456945  0.3100733679644407 		Uiso   ? 		H 		0.13081
H 1.0  		0.32994943784938136 		0.1354343320143207  0.3045395312304754 		Uiso   ? 		H 		0.13081
H 1.0  		0.825953143646756 		0.6328120092958985  0.30257591174422965 		Uiso   ? 		H 		0.13081
H 1.0  		0.8343932541925759 		0.13190126248351236  0.29561398811117656 		Uiso   ? 		H 		0.13081
H 1.0  		0.5788345581307707 		0.3853008604987124  0.30775272675342297 		Uiso   ? 		H 		0.13081
H 1.0  		0.3258275233967715 		0.6328120092958985  0.29811314018458024 		Uiso   ? 		H 		0.13081
H 1.0  		0.07890521952138681 		0.8850339174674959  0.30114782484514185 		Uiso   ? 		H 		0.13081
H 1.0  		0.08302713397399658 		0.3874599585453175  0.614612899194916 		Uiso   ? 		H 		0.13154
H 1.0  		0.5813862194585768 		0.8854264807486968  0.6106856602224245 		Uiso   ? 		H 		0.13154
H 1.0  		0.3328936624583883 		0.13366779724891653  0.6106856602224245 		Uiso   ? 		H 		0.13154
H 1.0  		0.8302713397399663 		0.6371302053891088  0.6119352362591264 		Uiso   ? 		H 		0.13154
H 1.0  		0.8294862131775643 		0.14112649959173418  0.614791410057302 		Uiso   ? 		H 		0.13154
H 1.0  		0.5811899378179762 		0.38471201557691104  0.6206822685160392 		Uiso   ? 		H 		0.13154
H 1.0  		0.3348564788643929 		0.6322231643740972  0.6028311822774416 		Uiso   ? 		H 		0.13154
H 1.0  		0.08243828905219516 		0.8881744237171033  0.6031882040022136 		Uiso   ? 		H 		0.13154
H 1.0  		0.9519659569122543 		0.19549651403806295  0.2879380210285796 		Uiso   ? 		H 		0.45903
H 1.0  		0.4496812386156648 		0.6932667546008418  0.28722397757903567 		Uiso   ? 		H 		0.45903
H 1.0  		0.1994221468500722 		0.9480403241002451  0.2856173798175619 		Uiso   ? 		H 		0.45903
H 1.0  		0.6975849506940519 		0.446344450725457  0.2888305753405095 		Uiso   ? 		H 		0.45903
H 1.0  		0.7191759311601029 		0.9674722065196911  0.3041825095057034 		Uiso   ? 		H 		0.45903
H 1.0  		0.46989824759751275 		0.2219945355191257  0.3023974008818437 		Uiso   ? 		H 		0.45903
H 1.0  		0.20413290622448338 		0.44811098549086115  0.28990164051482537 		Uiso   ? 		H 		0.45903
H 1.0  		0.9498068588656493 		0.6971923874128511  0.2857958906799479 		Uiso   ? 		H 		0.45903
H 1.0  		0.9521622385528548 		0.20197380817787827  0.6005105410664239 		Uiso   ? 		H 		0.45599
H 1.0  		0.4518403366622699 		0.700136612021858  0.5990824541673361 		Uiso   ? 		H 		0.45599
H 1.0  		0.20099239997487592 		0.950591985428051  0.5990824541673361 		Uiso   ? 		H 		0.45599
H 1.0  		0.7050436530368696 		0.44712957728785885  0.6024741605526697 		Uiso   ? 		H 		0.45599
H 1.0  		0.7028845549902644 		0.9476477608190441  0.5985469215801782 		Uiso   ? 		H 		0.45599
H 1.0  		0.4538031530682746 		0.1956927956786634  0.6008675627911959 		Uiso   ? 		H 		0.45599
H 1.0  		0.20452546950568432 		0.448896112053263  0.599975008479266 		Uiso   ? 		H 		0.45599
H 1.0  		0.9537324916776585 		0.702688273349664  0.5974758564058623 		Uiso   ? 		H 		0.45599
H 1.0  		0.8510771936436154 		0.1774386031028202  0.28686695585426375 		Uiso   ? 		H 		0.30945
H 1.0  		0.34133377300420825 		0.6771716600716036  0.28615291240471985 		Uiso   ? 		H 		0.30945
H 1.0  		0.09284121600401979 		0.9299824131650023  0.28758099930380765 		Uiso   ? 		H 		0.30945
H 1.0  		0.5951259343006093 		0.42809025814961377  0.2968635641478784 		Uiso   ? 		H 		0.30945
H 1.0  		0.593359399535205 		0.923505119025187  0.28900908620289545 		Uiso   ? 		H 		0.30945
H 1.0  		0.3425114628478111 		0.18038282771182718  0.29561398811117656 		Uiso   ? 		H 		0.30945
H 1.0  		0.09500031405062494 		0.4312307643992212  0.29204377086345706 		Uiso   ? 		H 		0.30945
H 1.0  		0.8412631116135921 		0.6742274354625967  0.28526035809279 		Uiso   ? 		H 		0.30945
H 1.0  		0.8445998995038001 		0.1856824320080397  0.6047948017636874 		Uiso   ? 		H 		0.31056
H 1.0  		0.35193298159663333 		0.6754051253061993  0.5906924436351952 		Uiso   ? 		H 		0.31056
H 1.0  		0.10167388983104071 		0.9295898498838013  0.5889073350113354 		Uiso   ? 		H 		0.31056
H 1.0  		0.5939482444570064 		0.4276976948684128  0.6062228886627752 		Uiso   ? 		H 		0.31056
H 1.0  		0.6004255385968218 		0.9270381885559953  0.5939056391581428 		Uiso   ? 		H 		0.31056
H 1.0  		0.34898875698762644 		0.175672068337416  0.5996179867544941 		Uiso   ? 		H 		0.31056
H 1.0  		0.0985333835814333 		0.4278939765090133  0.6005105410664239 		Uiso   ? 		H 		0.31056
H 1.0  		0.8404779850511903 		0.6809010112430124  0.6055088452132312 		Uiso   ? 		H 		0.31056
H 1.0  		0.8834636643426922 		0.1845047421644369  0.2895446187900534 		Uiso   ? 		H 		0.32748
H 1.0  		0.37018717417247654 		0.6903225299918347  0.2918652600010711 		Uiso   ? 		H 		0.32748
H 1.0  		0.12503140506249602 		0.9392076502732242  0.29043717310198325 		Uiso   ? 		H 		0.32748
H 1.0  		0.6286900948432887 		0.43437127064882863  0.2929363251753869 		Uiso   ? 		H 		0.32748
H 1.0  		0.6245681803906789 		0.9350857358206144  0.2938288794873168 		Uiso   ? 		H 		0.32748
H 1.0  		0.37548677846868916 		0.189608064820049  0.2943644120744748 		Uiso   ? 		H 		0.32748
H 1.0  		0.1264053765466993 		0.4398671565856416  0.2938288794873168 		Uiso   ? 		H 		0.32748
H 1.0  		0.872079329187865 		0.686200615539225  0.2856173798175619 		Uiso   ? 		H 		0.32748
H 1.0  		0.8777714967652787 		0.19510395075686202  0.6039022474517575 		Uiso   ? 		H 		0.32827
H 1.0  		0.38314176245210724 		0.6858080522580241  0.5983684107177922 		Uiso   ? 		H 		0.32827
H 1.0  		0.13209754412411276 		0.9390113686326236  0.5939056391581428 		Uiso   ? 		H 		0.32827
H 1.0  		0.6261384335154827 		0.4369229319766347  0.6053303343508453 		Uiso   ? 		H 		0.32827
H 1.0  		0.6332045725770994 		0.936263425664217  0.5962262803691605 		Uiso   ? 		H 		0.32827
H 1.0  		0.38117894604610264 		0.1813642359148295  0.5960477695067745 		Uiso   ? 		H 		0.32827
H 1.0  		0.13111613592111046 		0.4361378054142328  0.5969403238187044 		Uiso   ? 		H 		0.32827
H 1.0  		0.8707053577036619 		0.6922853463978395  0.6089005515985648 		Uiso   ? 		H 		0.32827
H 1.0  		0.1466223855285472 		0.21296558005150432  0.8095467609204021 		Uiso   ? 		H 		0.41662
H 1.0  		0.6504773569499404 		0.7144651717856919  0.8209714561131045 		Uiso   ? 		H 		0.41662
H 1.0  		0.40119967338735 		0.967864769800892  0.8124029347185777 		Uiso   ? 		H 		0.41662
H 1.0  		0.9038769549651405 		0.46420608002009933  0.8138310216176655 		Uiso   ? 		H 		0.41662
H 1.0  		0.9009327303561333 		0.9627614471452799  0.8200789018011747 		Uiso   ? 		H 		0.41662
H 1.0  		0.6516550467935431 		0.2131618616921048  0.8157946411039113 		Uiso   ? 		H 		0.41662
H 1.0  		0.39982570190314676 		0.4616544186922932  0.809903782645174 		Uiso   ? 		H 		0.41662
H 1.0  		0.15054801834055645 		0.7152502983480937  0.8161516628286832 		Uiso   ? 		H 		0.41662
H 1.0  		0.012169461717228791 		0.4322121726022235  0.8423927595994217 		Uiso   ? 		H 		0.41347
H 1.0  		0.5077806042334024 		0.9343006092582125  0.83935807493886 		Uiso   ? 		H 		0.41347
H 1.0  		0.25614754098360654 		0.18273820739903274  0.8363233902782984 		Uiso   ? 		H 		0.41347
H 1.0  		0.7588248225613969 		0.6818824194460148  0.8377514771773862 		Uiso   ? 		H 		0.41347
H 1.0  		0.7600025124049997 		0.1868601218516425  0.8386440314893162 		Uiso   ? 		H 		0.41347
H 1.0  		0.5052289429055964 		0.4322121726022235  0.8382870097645442 		Uiso   ? 		H 		0.41347
H 1.0  		0.2547735694994033 		0.6848266440550217  0.8352523251039827 		Uiso   ? 		H 		0.41347
H 1.0  		0.008832673827020859 		0.931160103008605  0.840072118388404 		Uiso   ? 		H 		0.41347
H 1.0  		0.9745383455813077 		0.40492902455875895  0.8218640104250344 		Uiso   ? 		H 		0.43113
H 1.0  		0.47068337415991457 		0.9085877143395515  0.8243631624984381 		Uiso   ? 		H 		0.43113
H 1.0  		0.22670529489353686 		0.15466993279316626  0.8234706081865083 		Uiso   ? 		H 		0.43113
H 1.0  		0.7238866905345143 		0.6581323409333585  0.8207929452507186 		Uiso   ? 		H 		0.43113
H 1.0  		0.7272234784247221 		0.15938069216757744  0.8234706081865083 		Uiso   ? 		H 		0.43113
H 1.0  		0.4724499089253188 		0.4013959550279505  0.8229350755993503 		Uiso   ? 		H 		0.43113
H 1.0  		0.2221908171597261 		0.6571509327303562  0.8195433692140167 		Uiso   ? 		H 		0.43113
H 1.0  		0.9715941209723008 		0.9030918284027386  0.8225780538745783 		Uiso   ? 		H 		0.43113
H 1.0  		0.9963256076879593 		0.07223164374097105  0.8348953033792106 		Uiso   ? 		H 		0.41374
H 1.0  		0.4938446077507694 		0.5711795741473527  0.8404291401131759 		Uiso   ? 		H 		0.41374
H 1.0  		0.24123013629797121 		0.8218312291941462  0.83935807493886 		Uiso   ? 		H 		0.41374
H 1.0  		0.74744048740657 		0.3246498335531688  0.8382870097645442 		Uiso   ? 		H 		0.41374
H 1.0  		0.7446925444381635 		0.8224200741159476  0.8432853139113516 		Uiso   ? 		H 		0.41374
H 1.0  		0.4985553671251806 		0.06398781483575153  0.8368589228654564 		Uiso   ? 		H 		0.41374
H 1.0  		0.2514367816091954 		0.31817253941335344  0.8365019011406845 		Uiso   ? 		H 		0.41374
H 1.0  		0.9967181709691604 		0.5703944475849507  0.839179564076474 		Uiso   ? 		H 		0.41374
H 1.0  		0.0306199359336725 		0.10501067772124868  0.8182937931773149 		Uiso   ? 		H 		0.43084
H 1.0  		0.5317269643866592 		0.6008181018780228  0.8240061407736661 		Uiso   ? 		H 		0.43084
H 1.0  		0.28323440738647065 		0.8467589975504052  0.8213284778378764 		Uiso   ? 		H 		0.43084
H 1.0  		0.7817897745116513 		0.35311067144023617  0.8236491190488942 		Uiso   ? 		H 		0.43084
H 1.0  		0.7827711827146536 		0.8506846303624144  0.8272193362966137 		Uiso   ? 		H 		0.43084
H 1.0  		0.5332972175114629 		0.09715941209723007  0.8241846516360521 		Uiso   ? 		H 		0.43084
H 1.0  		0.2840195339488726 		0.3523255448778343  0.8181152823149289 		Uiso   ? 		H 		0.43084
H 1.0  		0.030423654293072006 		0.6004255385968219  0.8207929452507186 		Uiso   ? 		H 		0.43084
H 1.0  		0.8544139815338233 		0.29540386910369953  0.8145450650672094 		Uiso   ? 		H 		0.42266
H 1.0  		0.3560548960492431 		0.7910150116198732  0.8104393152323319 		Uiso   ? 		H 		0.42266
H 1.0  		0.10481439608064821 		0.04121914452609761  0.8163301736910692 		Uiso   ? 		H 		0.42266
H 1.0  		0.6014069467998242 		0.5399707932918787  0.8161516628286832 		Uiso   ? 		H 		0.42266
H 1.0  		0.6023883550028265 		0.038863764838892034  0.8157946411039113 		Uiso   ? 		H 		0.42266
H 1.0  		0.3507552917530306 		0.2924596444946926  0.8184723040397008 		Uiso   ? 		H 		0.42266
H 1.0  		0.10579580428365051 		0.5444852710256893  0.8163301736910692 		Uiso   ? 		H 		0.42266
H 1.0  		0.8550028264556246 		0.7896410401356698  0.8138310216176655 		Uiso   ? 		H 		0.42266
H 1.0  		0.8287010866151625 		0.245352050750581  0.13406165765186812 		Uiso   ? 		H 		0.42325
H 1.0  		0.33328622573958916 		0.7548991897493876  0.13281208161516628 		Uiso   ? 		H 		0.42325
H 1.0  		0.08047547264619051 		0.9959330444067584  0.13281208161516628 		Uiso   ? 		H 		0.42325
H 1.0  		0.57432008039696 		0.4993404936875825  0.13923847266106143 		Uiso   ? 		H 		0.42325
H 1.0  		0.605136297971233 		0.010795490233025564  0.14280868990878096 		Uiso   ? 		H 		0.42325
H 1.0  		0.32955687456818045 		0.2486888386407889  0.1358467662757279 		Uiso   ? 		H 		0.42325
H 1.0  		0.07537214999057847 		0.4965925507191759  0.13870294007390352 		Uiso   ? 		H 		0.42325
H 1.0  		0.8318415928647699 		0.7497958670937755  0.13406165765186812 		Uiso   ? 		H 		0.42325
H 1.0  		0.8550028264556246 		0.20589944098988758  0.16030275442260664 		Uiso   ? 		H 		0.42118
H 1.0  		0.353895798002638 		0.716624269832297  0.15262678734000965 		Uiso   ? 		H 		0.42118
H 1.0  		0.10658093084605234 		0.9637428553482822  0.15441189596386942 		Uiso   ? 		H 		0.42118
H 1.0  		0.5998366936750205 		0.45949532064568815  0.15494742855102733 		Uiso   ? 		H 		0.42118
H 1.0  		0.5961073425036115 		0.9602097858174738  0.1529838090647816 		Uiso   ? 		H 		0.42118
H 1.0  		0.35311067144023617 		0.21335814333270522  0.16137381959692249 		Uiso   ? 		H 		0.42118
H 1.0  		0.10108504490923935 		0.4589064757238867  0.1581606240739749 		Uiso   ? 		H 		0.42118
H 1.0  		0.8538251366120219 		0.7099506940518812  0.15798211321158895 		Uiso   ? 		H 		0.42118
H 1.0  		0.14524841404434394 		0.28716004019848  0.16530105856941396 		Uiso   ? 		H 		0.42055
H 1.0  		0.6549918346837511 		0.7837525909176559  0.15405487423909744 		Uiso   ? 		H 		0.42055
H 1.0  		0.3988442937001445 		0.038667483198291566  0.1581606240739749 		Uiso   ? 		H 		0.42055
H 1.0  		0.9023067018403368 		0.5362414421204699  0.15494742855102733 		Uiso   ? 		H 		0.42055
H 1.0  		0.9048583631681428 		0.03748979335468878  0.1567325371748871 		Uiso   ? 		H 		0.42055
H 1.0  		0.6540104264807487 		0.2873563218390805  0.16155233045930847 		Uiso   ? 		H 		0.42055
H 1.0  		0.40375133471515606 		0.5340823440738648  0.15958871097306274 		Uiso   ? 		H 		0.42055
H 1.0  		0.15329596130896297 		0.7888559135732681  0.1590531783859048 		Uiso   ? 		H 		0.42055
H 1.0  		0.17940141950882482 		0.2504553734061931  0.13923847266106143 		Uiso   ? 		H 		0.42439
H 1.0  		0.6777605049934049 		0.7417483198291565  0.13299059247755227 		Uiso   ? 		H 		0.42439
H 1.0  		0.4335861440864267 		0.9961293260473589  0.13477570110141204 		Uiso   ? 		H 		0.42439
H 1.0  		0.929393568243201 		0.4958074241567741  0.13245505989039433 		Uiso   ? 		H 		0.42439
H 1.0  		0.9311601030086049 		0.9973070158909617  0.13316910333993826 		Uiso   ? 		H 		0.42439
H 1.0  		0.6783493499152063 		0.24731486715658565  0.1358467662757279 		Uiso   ? 		H 		0.42439
H 1.0  		0.42534231518120713 		0.4914892280635639  0.13477570110141204 		Uiso   ? 		H 		0.42439
H 1.0  		0.17351297029081084 		0.7437111362351612  0.13299059247755227 		Uiso   ? 		H 		0.42439
H 1.0  		0.016683939451039503 		0.10088876326863891  0.142451668184009 		Uiso   ? 		H 		0.41862
H 1.0  		0.5107248288424094 		0.5982664405502167  0.14120209214730717 		Uiso   ? 		H 		0.41862
H 1.0  		0.2722426355128446 		0.8551991080962252  0.14602188543172853 		Uiso   ? 		H 		0.41862
H 1.0  		0.7688351862320206 		0.35291438979963574  0.13905996179867547 		Uiso   ? 		H 		0.41862
H 1.0  		0.7680500596696187 		0.8536288549714215  0.14209464645923706 		Uiso   ? 		H 		0.41862
H 1.0  		0.5187723761070284 		0.10363670623704542  0.1454863528445706 		Uiso   ? 		H 		0.41862
H 1.0  		0.26733559449783306 		0.35546605112744173  0.14637890715650048 		Uiso   ? 		H 		0.41862
H 1.0  		0.018450474216443653 		0.6006218202374223  0.13673932058765778 		Uiso   ? 		H 		0.41862
H 1.0  		0.01040292695182463 		0.0708576722567678  0.13066995126653458 		Uiso   ? 		H 		0.42259
H 1.0  		0.5013033100935871 		0.5682353495383456  0.13745336403720168 		Uiso   ? 		H 		0.42259
H 1.0  		0.2545772878588028 		0.8273271151309591  0.13888145093628948 		Uiso   ? 		H 		0.42259
H 1.0  		0.7537214999057849 		0.3252386784749702  0.13263357075278032 		Uiso   ? 		H 		0.42259
H 1.0  		0.7548991897493876 		0.8237940456001508  0.13531123368856995 		Uiso   ? 		H 		0.42259
H 1.0  		0.5030698448589913 		0.07360561522517431  0.14084507042253522 		Uiso   ? 		H 		0.42259
H 1.0  		0.2522219081715973 		0.328968029646379  0.14066655956014926 		Uiso   ? 		H 		0.42259
H 1.0  		0.998288424093964 		0.5766754600841656  0.13602527713811385 		Uiso   ? 		H 		0.42259
H 1.0  		0.9867078072985366 		0.3925632812009296  0.1506631678537639 		Uiso   ? 		H 		0.42296
H 1.0  		0.4830491175177438 		0.892688901450914  0.14602188543172853 		Uiso   ? 		H 		0.42296
H 1.0  		0.2359305320017587 		0.14269675271653792  0.14602188543172853 		Uiso   ? 		H 		0.42296
H 1.0  		0.7384115319389486 		0.6400744299981158  0.14798550491797427 		Uiso   ? 		H 		0.42296
H 1.0  		0.7368412788141449 		0.14269675271653792  0.14602188543172853 		Uiso   ? 		H 		0.42296
H 1.0  		0.48756359525155457 		0.39334840776333146  0.142451668184009 		Uiso   ? 		H 		0.42296
H 1.0  		0.23828591168896424 		0.6461591608567301  0.1365608097252718 		Uiso   ? 		H 		0.42296
H 1.0  		0.9908297217511464 		0.8958294077005214  0.14120209214730717 		Uiso   ? 		H 		0.42296
H 1.0  		0.7853228440424598 		0.2781310847308586  0.14066655956014926 		Uiso   ? 		H 		0.43496
H 1.0  		0.2846083788706739 		0.7829674643552541  0.14370124422071084 		Uiso   ? 		H 		0.43496
H 1.0  		0.03395672382388041 		0.02689058476226368  0.14155911387207915 		Uiso   ? 		H 		0.43496
H 1.0  		0.532512090949061 		0.5278013315746499  0.1462003962941145 		Uiso   ? 		H 		0.43496
H 1.0  		0.5336897807926638 		0.02944224609006972  0.14441528767025474 		Uiso   ? 		H 		0.43496
H 1.0  		0.28205671754286793 		0.2826455624646693  0.14280868990878096 		Uiso   ? 		H 		0.43496
H 1.0  		0.03199390741787573 		0.529960429621255  0.14155911387207915 		Uiso   ? 		H 		0.43496
H 1.0  		0.7855191256830601 		0.7835563092770556  0.13995251611060536 		Uiso   ? 		H 		0.43496
H 1.0  		0.7986699956032913 		0.30129231832171344  0.44716971027687036 		Uiso   ? 		H 		0.45846
H 1.0  		0.30070347339991205 		0.8016142202122982  0.4434209821667649 		Uiso   ? 		H 		0.45846
H 1.0  		0.053388606243326434 		0.05417373280572829  0.44324247130437894 		Uiso   ? 		H 		0.45846
H 1.0  		0.5513551284467056 		0.5523365366497079  0.44574162337778256 		Uiso   ? 		H 		0.45846
H 1.0  		0.5535142264933107 		0.05240719804032411  0.4428854495796069 		Uiso   ? 		H 		0.45846
H 1.0  		0.3007034733999121 		0.29932950191570884  0.44574162337778256 		Uiso   ? 		H 		0.45846
H 1.0  		0.049462973431317094 		0.5535142264933107  0.44467055820346674 		Uiso   ? 		H 		0.45846
H 1.0  		0.7986699956032913 		0.8006328120092959  0.4434209821667649 		Uiso   ? 		H 		0.45846
H 1.0  		0.8023993467747002 		0.3018811632435149  0.7509951980578018 		Uiso   ? 		H 		0.45257
H 1.0  		0.2957964323849004 		0.797688587400289  0.7493886002963281 		Uiso   ? 		H 		0.45257
H 1.0  		0.04887412850951574 		0.04789272030651341  0.7484960459843981 		Uiso   ? 		H 		0.45257
H 1.0  		0.546840650712895 		0.5527290999309089  0.7499241328834859 		Uiso   ? 		H 		0.45257
H 1.0  		0.5503737202437032 		0.05221091639972364  0.7483175351220123 		Uiso   ? 		H 		0.45257
H 1.0  		0.30266628980591676 		0.29618899566610135  0.7476034916724683 		Uiso   ? 		H 		0.45257
H 1.0  		0.05240719804032407 		0.5437001444632875  0.7486745568467842 		Uiso   ? 		H 		0.45257
H 1.0  		0.7943517995100811 		0.7996514038062936  0.7520662632321178 		Uiso   ? 		H 		0.45257
H 1.0  		0.9770900069091137 		0.3853008604987124  0.7986575983148575 		Uiso   ? 		H 		0.41711
H 1.0  		0.4820677093147415 		0.8903335217637083  0.8009782395258752 		Uiso   ? 		H 		0.41711
H 1.0  		0.22238709880032662 		0.13523805037372025  0.7999071743515593 		Uiso   ? 		H 		0.41711
H 1.0  		0.7258495069405189 		0.6396818667169147  0.7963369571038399 		Uiso   ? 		H 		0.41711
H 1.0  		0.7246718170969161 		0.13935996482633  0.7993716417644013 		Uiso   ? 		H 		0.41711
H 1.0  		0.4775532315809308 		0.38510457885811195  0.7965154679662257 		Uiso   ? 		H 		0.41711
H 1.0  		0.22336850700332891 		0.6388967401545129  0.7940163158928222 		Uiso   ? 		H 		0.41711
H 1.0  		0.9784639783933171 		0.8856227623892972  0.7988361091772435 		Uiso   ? 		H 		0.41711
H 1.0  		0.016487657810439038 		0.11835782928208027  0.794730359342366 		Uiso   ? 		H 		0.41631
H 1.0  		0.5168095597010238 		0.6163243514854595  0.8013352612506471 		Uiso   ? 		H 		0.41631
H 1.0  		0.27479429684065065 		0.866976006532253  0.7979435548653135 		Uiso   ? 		H 		0.41631
H 1.0  		0.769816594435023 		0.3680280761258715  0.8006212178011033 		Uiso   ? 		H 		0.41631
H 1.0  		0.7739385088876327 		0.8671722881728535  0.8022278155625769 		Uiso   ? 		H 		0.41631
H 1.0  		0.5323158093084606 		0.1181615476414798  0.8007997286634891 		Uiso   ? 		H 		0.41631
H 1.0  		0.27636454996545445 		0.36665410464166825  0.7908031203698745 		Uiso   ? 		H 		0.41631
H 1.0  		0.03199390741787573 		0.6184834495320646  0.7965154679662257 		Uiso   ? 		H 		0.41631
H 1.0  		0.8300750580993657 		0.25398844293700146  0.8352523251039827 		Uiso   ? 		H 		0.41911
H 1.0  		0.32837918472457756 		0.7466553608441681  0.8411431835627198 		Uiso   ? 		H 		0.41911
H 1.0  		0.07910150116198732 		0.002159098046605113  0.8370374337278425 		Uiso   ? 		H 		0.41911
H 1.0  		0.5749089253187614 		0.499144212046982  0.8372159445902284 		Uiso   ? 		H 		0.41911
H 1.0  		0.5790308397713713 		0.002355379687205578  0.8386440314893162 		Uiso   ? 		H 		0.41911
H 1.0  		0.32484611519376927 		0.24947396520319076  0.8409646727003339 		Uiso   ? 		H 		0.41911
H 1.0  		0.07497958670937753 		0.5007144651717857  0.8390010532140881 		Uiso   ? 		H 		0.41911
H 1.0  		0.8338044092707746 		0.7435148545945607  0.8365019011406845 		Uiso   ? 		H 		0.41911
H 1.0  		0.17900885622762389 		0.2541847245776019  0.8386440314893162 		Uiso   ? 		H 		0.41781
H 1.0  		0.6736385905407952 		0.7548991897493876  0.8413216944251058 		Uiso   ? 		H 		0.41781
H 1.0  		0.4225943722128007 		0.00490704101501162  0.8366804120030705 		Uiso   ? 		H 		0.41781
H 1.0  		0.9268419069153949 		0.5022847182965895  0.84025062925079 		Uiso   ? 		H 		0.41781
H 1.0  		0.9333192010552102 		0.009225237108221845  0.8413216944251058 		Uiso   ? 		H 		0.41781
H 1.0  		0.6795270397588092 		0.25359587965580055  0.8381084989021583 		Uiso   ? 		H 		0.41781
H 1.0  		0.4257348784624081 		0.5032661264995918  0.839179564076474 		Uiso   ? 		H 		0.41781
H 1.0  		0.1794014195088248 		0.7543103448275863  0.8375729663150003 		Uiso   ? 		H 		0.41781
H 1.0  		0.8589284592676341 		0.2581103573896112  0.13995251611060536 		Uiso   ? 		H 		0.41691
H 1.0  		0.35899912065825007 		0.7696203127944224  0.14423677680786878 		Uiso   ? 		H 		0.41691
H 1.0  		0.10893631053325797 		0.012954588279630678  0.13923847266106143 		Uiso   ? 		H 		0.41691
H 1.0  		0.6039586081276302 		0.5103322655612085  0.14512933111979864 		Uiso   ? 		H 		0.41691
H 1.0  		0.5753014885999623 		0.008047547264619058  0.12942037522983274 		Uiso   ? 		H 		0.41691
H 1.0  		0.35311067144023617 		0.2698872558256391  0.13870294007390352 		Uiso   ? 		H 		0.41691
H 1.0  		0.10383298787764586 		0.5101359839206081  0.14423677680786878 		Uiso   ? 		H 		0.41691
H 1.0  		0.8577507694240313 		0.7674612147478175  0.1417376247344651 		Uiso   ? 		H 		0.41691
H 1.0  		0.15113686326235787 		0.23396771559575405  0.1433442224959389 		Uiso   ? 		H 		0.41691
H 1.0  		0.6479256956221343 		0.7323268010803342  0.14387975508309683 		Uiso   ? 		H 		0.41691
H 1.0  		0.40375133471515606 		0.9878854971421395  0.14387975508309683 		Uiso   ? 		H 		0.41691
H 1.0  		0.900343885434332 		0.4832453991583444  0.13816740748674558 		Uiso   ? 		H 		0.41691
H 1.0  		0.9015215752779348 		0.986904088939137  0.13995251611060536 		Uiso   ? 		H 		0.41691
H 1.0  		0.6494959487469381 		0.23180861754914894  0.14423677680786878 		Uiso   ? 		H 		0.41691
H 1.0  		0.3976666038565416 		0.48383424408014575  0.14727146146843034 		Uiso   ? 		H 		0.41691
H 1.0  		0.14701494880974808 		0.7337007725645375  0.14637890715650048 		Uiso   ? 		H 		0.41691
H 1.0  		0.0017665347654041573 		0.4198464292443942  0.14084507042253522 		Uiso   ? 		H 		0.41797
H 1.0  		0.5032661264995917 		0.9180092330883738  0.14084507042253522 		Uiso   ? 		H 		0.41797
H 1.0  		0.24947396520319076 		0.16939105583820113  0.1379888966243596 		Uiso   ? 		H 		0.41797
H 1.0  		0.7452813893599649 		0.6687315495257836  0.13370463592709617 		Uiso   ? 		H 		0.41797
H 1.0  		0.7484218956095724 		0.17135387224420578  0.13406165765186812 		Uiso   ? 		H 		0.41797
H 1.0  		0.49816280384397965 		0.42220180893159975  0.135132722826184 		Uiso   ? 		H 		0.41797
H 1.0  		0.2512404999685949 		0.6756014069467999  0.1335261250647102 		Uiso   ? 		H 		0.41797
H 1.0  		0.006281012499214818 		0.9246828088687897  0.1356682554133419 		Uiso   ? 		H 		0.41797
H 1.0  		0.9666870799572891 		0.0981408203002324  0.16137381959692249 		Uiso   ? 		H 		0.42205
H 1.0  		0.4610655737704918 		0.5964999057848126  0.16083828700976455 		Uiso   ? 		H 		0.42205
H 1.0  		0.2139469882545066 		0.8573582061428303  0.1678002106428176 		Uiso   ? 		H 		0.42205
H 1.0  		0.7150540167074932 		0.34506312417561713  0.15583998286295722 		Uiso   ? 		H 		0.42205
H 1.0  		0.7142688901450914 		0.8489180955970104  0.1581606240739749 		Uiso   ? 		H 		0.42205
H 1.0  		0.4667577413479053 		0.1020664531122417  0.16173084132169444 		Uiso   ? 		H 		0.42205
H 1.0  		0.2096287921612964 		0.35271810815903526  0.1695853192666774 		Uiso   ? 		H 		0.42205
H 1.0  		0.9590320959738711 		0.6016032284404246  0.16083828700976455 		Uiso   ? 		H 		0.42205
N 1.0  		0.15349224294956346 		0.2465297405941838  0.367375354790339 		Uiso   ? 		N 		-0.61398
N 1.0  		0.6528327366371459 		0.7623578920922053  0.36523322444170725 		Uiso   ? 		N 		-0.61398
N 1.0  		0.40355505307455564 		0.00451447773381069  0.36648280047840914 		Uiso   ? 		N 		-0.61398
N 1.0  		0.8958294077005214 		0.48501193392374853  0.36237705064353165 		Uiso   ? 		N 		-0.61398
N 1.0  		0.8983810690283273 		0.9845487092519315  0.3668398222031811 		Uiso   ? 		N 		-0.61398
N 1.0  		0.575105206959362 		0.2734203253564475  0.4118245595244471 		Uiso   ? 		N 		-0.61398
N 1.0  		0.40119967338735 		0.5144541800138183  0.36576875702886524 		Uiso   ? 		N 		-0.61398
N 1.0  		0.14937032849695367 		0.7484218956095724  0.36576875702886524 		Uiso   ? 		N 		-0.61398
N 1.0  		0.07419446014697569 		0.2738128886376484  0.720112818865028 		Uiso   ? 		N 		-0.61674
N 1.0  		0.5703944475849507 		0.7548991897493876  0.7240400578375195 		Uiso   ? 		N 		-0.61674
N 1.0  		0.3203316374599585 		0.02080585390364927  0.7210053731769578 		Uiso   ? 		N 		-0.61674
N 1.0  		0.909569122542554 		0.518968657747629  0.6765561684428498 		Uiso   ? 		N 		-0.61674
N 1.0  		0.8192795678663402 		0.022572388669053454  0.7215409057641158 		Uiso   ? 		N 		-0.61674
N 1.0  		0.572160982350355 		0.25124049996859493  0.7233260143879755 		Uiso   ? 		N 		-0.61674
N 1.0  		0.32327586206896547 		0.5228942905596383  0.7190417536907121 		Uiso   ? 		N 		-0.61674
N 1.0  		0.07242792538157147 		0.7704054393568244  0.7176136667916242 		Uiso   ? 		N 		-0.61674
N 1.0  		0.8697239495006596 		0.16997990076000252  0.28900908620289545 		Uiso   ? 		N 		-0.61144
N 1.0  		0.35899912065825007 		0.6746199987437975  0.292222281725843 		Uiso   ? 		N 		-0.61144
N 1.0  		0.11148797186106395 		0.9246828088687897  0.2911512165515272 		Uiso   ? 		N 		-0.61144
N 1.0  		0.6143615350794548 		0.4218092456503989  0.29829165104696626 		Uiso   ? 		N 		-0.61144
N 1.0  		0.6100433389862445 		0.9215423026191824  0.29739909673503634 		Uiso   ? 		N 		-0.61144
N 1.0  		0.36174706362665665 		0.17606463161861693  0.29882718363412414 		Uiso   ? 		N 		-0.61144
N 1.0  		0.1124693800640663 		0.4263237233842096  0.29739909673503634 		Uiso   ? 		N 		-0.61144
N 1.0  		0.8595173041894353 		0.67147949249419  0.2893661079276674 		Uiso   ? 		N 		-0.61144
N 1.0  		0.8638355002826456 		0.18077539099302808  0.607650975561863 		Uiso   ? 		N 		-0.61487
N 1.0  		0.36900948432887376 		0.6712832108535897  0.5992609650297221 		Uiso   ? 		N 		-0.61487
N 1.0  		0.11855411092268069 		0.9252716537905912  0.5960477695067745 		Uiso   ? 		N 		-0.61487
N 1.0  		0.6123987186734502 		0.4243609069782049  0.6112211928095825 		Uiso   ? 		N 		-0.61487
N 1.0  		0.618287167891464 		0.9240939639469884  0.6005105410664239 		Uiso   ? 		N 		-0.61487
N 1.0  		0.3674392312040701 		0.17017618240060298  0.6026526714150556 		Uiso   ? 		N 		-0.61487
N 1.0  		0.11796526600087932 		0.42514603354060676  0.6049733126260733 		Uiso   ? 		N 		-0.61487
N 1.0  		0.8589284592676341 		0.678153068274606  0.6080079972866349 		Uiso   ? 		N 		-0.61487
N 1.0  		0.9013252936373343 		0.24123013629797127  0.20957175244113604 		Uiso   ? 		N 		-0.61424
N 1.0  		0.4061067144023616 		0.7515624018591798  0.20939324157875008 		Uiso   ? 		N 		-0.61424
N 1.0  		0.15663274919917092 		0.0035330695308083662  0.2106428176154519 		Uiso   ? 		N 		-0.61424
N 1.0  		0.6491033854657371 		0.48167514603354067  0.2159981434870312 		Uiso   ? 		N 		-0.61424
N 1.0  		0.6540104264807486 		0.9951479178443566  0.209928774165908 		Uiso   ? 		N 		-0.61424
N 1.0  		0.3937409710445324 		0.23573425036115825  0.2159981434870312 		Uiso   ? 		N 		-0.61424
N 1.0  		0.14838892029395137 		0.49698511400037687  0.20957175244113604 		Uiso   ? 		N 		-0.61424
N 1.0  		0.8997550405125306 		0.7446925444381635  0.21242792623931167 		Uiso   ? 		N 		-0.61424
N 1.0  		0.9017178569185353 		0.2443706425475787  0.5244649136899981 		Uiso   ? 		N 		-0.61479
N 1.0  		0.398255448778343 		0.7405706299855538  0.5225012942037524 		Uiso   ? 		N 		-0.61479
N 1.0  		0.15290339802776204 		0.997895860812763  0.5242864028276121 		Uiso   ? 		N 		-0.61479
N 1.0  		0.6428223729665222 		0.4808900194711388  0.525178957139542 		Uiso   ? 		N 		-0.61479
N 1.0  		0.6569546510897557 		0.013935996482633  0.5219657616165944 		Uiso   ? 		N 		-0.61479
N 1.0  		0.40257364487155334 		0.24064129137616985  0.5241078919652261 		Uiso   ? 		N 		-0.61479
N 1.0  		0.14446328748194207 		0.48442308900194714  0.5194666095431908 		Uiso   ? 		N 		-0.61479
N 1.0  		0.906624897933547 		0.7586285409207966  0.516967457469787 		Uiso   ? 		N 		-0.61479
N 1.0  		0.11580616795427422 		0.16860592927579926  0.18333065567039755 		Uiso   ? 		N 		-0.61090
N 1.0  		0.6106321839080461 		0.6728534639783933  0.18101001445937986 		Uiso   ? 		N 		-0.61090
N 1.0  		0.36861692104767285 		0.9207571760567804  0.1342401685142541 		Uiso   ? 		N 		-0.61090
N 1.0  		0.8705090760630614 		0.4188650210413919  0.12995590781699068 		Uiso   ? 		N 		-0.61090
N 1.0  		0.8705090760630613 		0.9203646127755795  0.13102697299130653 		Uiso   ? 		N 		-0.61090
N 1.0  		0.613576408517053 		0.1723352804472081  0.17922490583552012 		Uiso   ? 		N 		-0.61090
N 1.0  		0.3635135983920608 		0.42475347025940585  0.1403095378353773 		Uiso   ? 		N 		-0.61090
N 1.0  		0.11364706990766907 		0.6754051253061993  0.14370124422071084 		Uiso   ? 		N 		-0.61090
N 1.0  		0.11286194334526724 		0.1780274480246216  0.45823738374480094 		Uiso   ? 		N 		-0.61327
N 1.0  		0.6108284655486464 		0.6761902518686013  0.4546671664970814 		Uiso   ? 		N 		-0.61327
N 1.0  		0.35958796558005146 		0.9278233151183972  0.45734482943287097 		Uiso   ? 		N 		-0.61327
N 1.0  		0.8628540920796433 		0.42494975190000633  0.45805887288241487 		Uiso   ? 		N 		-0.61327
N 1.0  		0.8636392186420451 		0.9248790905093901  0.45127546011174785 		Uiso   ? 		N 		-0.61327
N 1.0  		0.6180908862508637 		0.17645719489981787  0.44609864510255454 		Uiso   ? 		N 		-0.61327
N 1.0  		0.3646912882356636 		0.423575780415803  0.44824077545118624 		Uiso   ? 		N 		-0.61327
N 1.0  		0.11678757615727652 		0.6730497456189938  0.4469911994144844 		Uiso   ? 		N 		-0.61327
N 1.0  		0.11580616795427422 		0.1762609132592174  0.7526017958192757 		Uiso   ? 		N 		-0.62453
N 1.0  		0.6106321839080461 		0.6787419131964073  0.7627769149752762 		Uiso   ? 		N 		-0.62453
N 1.0  		0.36017681050185285 		0.9274307518371961  0.7574215891036971 		Uiso   ? 		N 		-0.62453
N 1.0  		0.8663871616104516 		0.43044563783681933  0.7531373284064337 		Uiso   ? 		N 		-0.62453
N 1.0  		0.8604987123924377 		0.9266456252747943  0.7543869044431354 		Uiso   ? 		N 		-0.62453
N 1.0  		0.6133801268764525 		0.1790088562276239  0.7574215891036971 		Uiso   ? 		N 		-0.62453
N 1.0  		0.3674392312040701 		0.42416462533760446  0.7472464699476964 		Uiso   ? 		N 		-0.62453
N 1.0  		0.11345078826706861 		0.6818824194460148  0.7538513718559775 		Uiso   ? 		N 		-0.62453
N 1.0  		0.9215423026191824 		0.20825482067709314  0.4068262553776397 		Uiso   ? 		N 		-0.61644
N 1.0  		0.43142704603982157 		0.7378226870171471  0.4096824291758154 		Uiso   ? 		N 		-0.61644
N 1.0  		0.18175679919603036 		0.98395986433013  0.41057498348774524 		Uiso   ? 		N 		-0.61644
N 1.0  		0.677367941712204 		0.4626358268952956  0.41289562469876295 		Uiso   ? 		N 		-0.61644
N 1.0  		0.6807047296024118 		0.9733606557377049  0.41075349435013125 		Uiso   ? 		N 		-0.61644
N 1.0  		0.42573487846240815 		0.21649864958231269  0.4096824291758154 		Uiso   ? 		N 		-0.61644
N 1.0  		0.17861629294642295 		0.47107593744111553  0.40986094003820134 		Uiso   ? 		N 		-0.61644
N 1.0  		0.925664217071792 		0.716624269832297  0.4084328531391135 		Uiso   ? 		N 		-0.61644
N 1.0  		0.9295898498838013 		0.22650901325293638  0.7204698405897999 		Uiso   ? 		N 		-0.61914
N 1.0  		0.4310344827586207 		0.736056152251743  0.7208268623145719 		Uiso   ? 		N 		-0.61914
N 1.0  		0.09872966522203375 		0.9774825701903148  0.6785197879290955 		Uiso   ? 		N 		-0.61914
N 1.0  		0.6848266440550217 		0.4828528358771434  0.7238615469751334 		Uiso   ? 		N 		-0.61914
N 1.0  		0.6836489542114188 		0.9808193580805226  0.7233260143879755 		Uiso   ? 		N 		-0.61914
N 1.0  		0.3509515733936311 		0.21846146598831734  0.6799478748281834 		Uiso   ? 		N 		-0.61914
N 1.0  		0.17920513786822434 		0.4718610640035174  0.7186847319659402 		Uiso   ? 		N 		-0.61914
N 1.0  		0.9213460209785818 		0.7156428616292947  0.712972384369589 		Uiso   ? 		N 		-0.61914
N 1.0  		0.08047547264619055 		0.11403963318887005  0.37540834359770797 		Uiso   ? 		N 		-0.61327
N 1.0  		0.5731423905533573 		0.6102396206268451  0.3696959960013567 		Uiso   ? 		N 		-0.61327
N 1.0  		0.3248461151937692 		0.8626578104390428  0.3704100394509006 		Uiso   ? 		N 		-0.61327
N 1.0  		0.8245791721625526 		0.3586065573770492  0.3588068333958121 		Uiso   ? 		N 		-0.61327
N 1.0  		0.8290936498963634 		0.8642280635638465  0.3779074956711116 		Uiso   ? 		N 		-0.61327
N 1.0  		0.5745163620375605 		0.1032441429558445  0.35916385512058413 		Uiso   ? 		N 		-0.61327
N 1.0  		0.3232758620689655 		0.36194334526725713  0.36523322444170725 		Uiso   ? 		N 		-0.61327
N 1.0  		0.07242792538157147 		0.6149503800012562  0.3711240829004446 		Uiso   ? 		N 		-0.61327
N 1.0  		0.07419446014697569 		0.11364706990766911  0.6756636141309199 		Uiso   ? 		N 		-0.61179
N 1.0  		0.5764791784435651 		0.6106321839080461  0.6806619182777273 		Uiso   ? 		N 		-0.61179
N 1.0  		0.32347214370956595 		0.8573582061428303  0.6706653099841126 		Uiso   ? 		N 		-0.61179
N 1.0  		0.8283085233339614 		0.36233590854845804  0.6765561684428498 		Uiso   ? 		N 		-0.61179
N 1.0  		0.8290936498963634 		0.8646206268450475  0.6801263856905693 		Uiso   ? 		N 		-0.61179
N 1.0  		0.5792271214119716 		0.11246938006406633  0.6853032006997626 		Uiso   ? 		N 		-0.61179
N 1.0  		0.3250423968343697 		0.3562511776898436  0.6735214837822883 		Uiso   ? 		N 		-0.61179
N 1.0  		0.07399817850637519 		0.6129875635952516  0.674057016369446 		Uiso   ? 		N 		-0.61179
N 1.0  		0.10010363670623704 		0.24495948746938007  0.21117835020260986 		Uiso   ? 		N 		-0.61773
N 1.0  		0.6078842409396396 		0.7645169901388105  0.21099983934022384 		Uiso   ? 		N 		-0.61773
N 1.0  		0.35762514917404686 		0.01629137616983858  0.21421303486317142 		Uiso   ? 		N 		-0.61773
N 1.0  		0.8526474467684192 		0.5085657307958044  0.20778664381727627 		Uiso   ? 		N 		-0.61773
N 1.0  		0.8546102631744238 		0.01629137616983858  0.2092147307163641 		Uiso   ? 		N 		-0.61773
N 1.0  		0.6076879592990391 		0.2563438226242071  0.21403452400078546 		Uiso   ? 		N 		-0.61773
N 1.0  		0.35526976948684125 		0.507584322592802  0.2129634588264696 		Uiso   ? 		N 		-0.61773
N 1.0  		0.1046181144400477 		0.7582359776395955  0.21046430675306593 		Uiso   ? 		N 		-0.61773
N 1.0  		0.1819530808366309 		0.22160197223792477  0.5673075206626323 		Uiso   ? 		N 		-0.61617
N 1.0  		0.5961073425036116 		0.7513661202185793  0.5233938485156822 		Uiso   ? 		N 		-0.61617
N 1.0  		0.3546809245650399 		0.0070661390616167325  0.5221442724789803 		Uiso   ? 		N 		-0.61617
N 1.0  		0.9233088373845864 		0.465776333144903  0.5589175101304914 		Uiso   ? 		N 		-0.61617
N 1.0  		0.9262530619935934 		0.9662945166760882  0.5615951730662812 		Uiso   ? 		N 		-0.61617
N 1.0  		0.6754051253061993 		0.2157135230199108  0.5607026187543512 		Uiso   ? 		N 		-0.61617
N 1.0  		0.43181960932102254 		0.47951604798693553  0.5642728360020708 		Uiso   ? 		N 		-0.61617
N 1.0  		0.18175679919603036 		0.7284011682683249  0.5667719880754744 		Uiso   ? 		N 		-0.61617
N 1.0  		0.07439074178757614 		0.3635135983920608  0.2234955997072422 		Uiso   ? 		N 		-0.62414
N 1.0  		0.5766754600841656 		0.8573582061428303  0.21510558917510134 		Uiso   ? 		N 		-0.62414
N 1.0  		0.3279866214433767 		0.11325450662646819  0.22010389332190866 		Uiso   ? 		N 		-0.62414
N 1.0  		0.8257568620061554 		0.6120061553922492  0.21992538245952267 		Uiso   ? 		N 		-0.62414
N 1.0  		0.8296824948181648 		0.1099177187362603  0.21956836073475072 		Uiso   ? 		N 		-0.62414
N 1.0  		0.5766754600841656 		0.3562511776898436  0.21278494796408362 		Uiso   ? 		N 		-0.62414
N 1.0  		0.3258275233967715 		0.6076879592990391  0.2115353719273818 		Uiso   ? 		N 		-0.62414
N 1.0  		0.0794940644431882 		0.861087557314239  0.2197468715971367 		Uiso   ? 		N 		-0.62414
N 1.0  		0.07772752967778404 		0.3670466679228692  0.5287491743872615 		Uiso   ? 		N 		-0.61146
N 1.0  		0.5723572639909553 		0.8652094717668489  0.5198236312679627 		Uiso   ? 		N 		-0.61146
N 1.0  		0.33053828277118275 		0.11580616795427423  0.5298202395615773 		Uiso   ? 		N 		-0.61146
N 1.0  		0.8235977639595503 		0.6092582124238428  0.5216087398918224 		Uiso   ? 		N 		-0.61146
N 1.0  		0.8290936498963634 		0.10952515545505938  0.5221442724789803 		Uiso   ? 		N 		-0.61146
N 1.0  		0.5774605866465675 		0.36606525971986686  0.5317838590478231 		Uiso   ? 		N 		-0.61146
N 1.0  		0.32936059292757985 		0.6188760128132655  0.5273210874881737 		Uiso   ? 		N 		-0.61146
N 1.0  		0.07399817850637518 		0.8606949940330382  0.5235723593780681 		Uiso   ? 		N 		-0.61146
N 1.0  		0.0796903460837887 		0.3642987249544627  0.8354308359663686 		Uiso   ? 		N 		-0.62209
N 1.0  		0.5756940518811633 		0.8675648514540545  0.8334672164801228 		Uiso   ? 		N 		-0.62209
N 1.0  		0.32955687456818045 		0.1148247597512719  0.839715096663632 		Uiso   ? 		N 		-0.62209
N 1.0  		0.8287010866151625 		0.6088656491426419  0.7924097181313483 		Uiso   ? 		N 		-0.62209
N 1.0  		0.8330192827083726 		0.12090949060988632  0.8431068030489656 		Uiso   ? 		N 		-0.62209
N 1.0  		0.5774605866465675 		0.36194334526725713  0.8316821078562631 		Uiso   ? 		N 		-0.62209
N 1.0  		0.32896802964637895 		0.6139689717982539  0.840072118388404 		Uiso   ? 		N 		-0.62209
N 1.0  		0.07812009295898494 		0.8652094717668489  0.8343597707920528 		Uiso   ? 		N 		-0.62209
N 1.0  		0.009617800389422766 		0.1774386031028202  0.25205733768899835 		Uiso   ? 		N 		-0.60464
N 1.0  		0.5014995917341876 		0.6814898561648138  0.2511647833770685 		Uiso   ? 		N 		-0.60464
N 1.0  		0.29187079957289114 		0.9229162741033855  0.2556275549367179 		Uiso   ? 		N 		-0.60464
N 1.0  		0.7627504553734062 		0.4302493561962189  0.25241435941377033 		Uiso   ? 		N 		-0.60464
N 1.0  		0.7594136674831983 		0.9286084416807989  0.25241435941377033 		Uiso   ? 		N 		-0.60464
N 1.0  		0.5107248288424094 		0.18077539099302808  0.25330691372570024 		Uiso   ? 		N 		-0.60464
N 1.0  		0.26183970856102007 		0.43083820111802024  0.25919777218443746 		Uiso   ? 		N 		-0.60464
N 1.0  		0.016095094529238074 		0.6828638276490171  0.2511647833770685 		Uiso   ? 		N 		-0.60464
N 1.0  		0.03493813202688272 		0.175672068337416  0.5655224120387726 		Uiso   ? 		N 		-0.60376
N 1.0  		0.5437001444632875 		0.6704980842911877  0.569806672736036 		Uiso   ? 		N 		-0.60376
N 1.0  		0.28833773004208274 		0.9242902455875887  0.5658794337635445 		Uiso   ? 		N 		-0.60376
N 1.0  		0.7890521952138685 		0.4245571886188053  0.5657009229011586 		Uiso   ? 		N 		-0.60376
N 1.0  		0.7874819420890646 		0.9248790905093901  0.5657009229011586 		Uiso   ? 		N 		-0.60376
N 1.0  		0.5427187362602852 		0.17429809685321276  0.5665934772130884 		Uiso   ? 		N 		-0.60376
N 1.0  		0.28912285660448467 		0.4237720620564035  0.5648083685892287 		Uiso   ? 		N 		-0.60376
N 1.0  		0.05378116952452732 		0.6530290182777464  0.5787322158553349 		Uiso   ? 		N 		-0.60376
N 1.0  		0.039256328120092936 		0.41729476791658815  0.41485924418500864 		Uiso   ? 		N 		-0.60532
N 1.0  		0.538007976885874 		0.9215423026191824  0.41485924418500864 		Uiso   ? 		N 		-0.60532
N 1.0  		0.29088939136988884 		0.17410181521261228  0.41289562469876295 		Uiso   ? 		N 		-0.60532
N 1.0  		0.771975692481628 		0.6775642233528045  0.4087898748638855 		Uiso   ? 		N 		-0.60532
N 1.0  		0.7823786194334528 		0.17449437849381322  0.4150377550473947 		Uiso   ? 		N 		-0.60532
N 1.0  		0.5491960304001006 		0.410032347214371  0.41950052660704407 		Uiso   ? 		N 		-0.60532
N 1.0  		0.28441209723007344 		0.674816280384398  0.4080758314143416 		Uiso   ? 		N 		-0.60532
N 1.0  		0.02473148671565851 		0.9297861315244018  0.40986094003820134 		Uiso   ? 		N 		-0.60532
N 1.0  		0.04534105897870735 		0.4223980905722003  0.7226119709384317 		Uiso   ? 		N 		-0.61003
N 1.0  		0.5331009358708624 		0.9282158783995981  0.7174351559292383 		Uiso   ? 		N 		-0.61003
N 1.0  		0.30345141636831857 		0.15938069216757744  0.7292168728467128 		Uiso   ? 		N 		-0.61003
N 1.0  		0.7706017209974249 		0.6824712643678161  0.7119013191952731 		Uiso   ? 		N 		-0.61003
N 1.0  		0.802791910055901 		0.1644840148231895  0.7276102750852389 		Uiso   ? 		N 		-0.61003
N 1.0  		0.5448778343068903 		0.418472457760191  0.7226119709384317 		Uiso   ? 		N 		-0.61003
N 1.0  		0.29108567301048927 		0.6732460272595944  0.7208268623145719 		Uiso   ? 		N 		-0.61003
N 1.0  		0.039845173041894305 		0.9264493436341938  0.7210053731769578 		Uiso   ? 		N 		-0.61003
N 1.0  		0.9886706237045412 		0.32052791910055906  0.2541994680376301 		Uiso   ? 		N 		-0.59981
N 1.0  		0.4720573456441178 		0.8228126373971485  0.25919777218443746 		Uiso   ? 		N 		-0.59981
N 1.0  		0.21394698825450664 		0.07654983983418127  0.25687713097341974 		Uiso   ? 		N 		-0.59981
N 1.0  		0.7013143018654607 		0.5843304440675837  0.2588407504596655 		Uiso   ? 		N 		-0.59981
N 1.0  		0.7431222913133597 		0.06752088436655988  0.25616308752387584 		Uiso   ? 		N 		-0.59981
N 1.0  		0.47205734564411783 		0.4013959550279505  0.2940073903497028 		Uiso   ? 		N 		-0.59981
N 1.0  		0.21590980466051127 		0.57432008039696  0.254556489762402 		Uiso   ? 		N 		-0.59981
N 1.0  		0.9676684881602915 		0.8251680170843539  0.25509202234956 		Uiso   ? 		N 		-0.59981
N 1.0  		0.9806230764399223 		0.3228832987877646  0.569985183598422 		Uiso   ? 		N 		-0.60179
N 1.0  		0.4700945292381132 		0.8251680170843539  0.5671290098002464 		Uiso   ? 		N 		-0.60179
N 1.0  		0.21041391872369827 		0.07949406444318825  0.5690926292864922 		Uiso   ? 		N 		-0.60179
N 1.0  		0.7299714213931285 		0.568824194460147  0.5640943251396848 		Uiso   ? 		N 		-0.60179
N 1.0  		0.7201573393631053 		0.07674612147478174  0.5692711401488781 		Uiso   ? 		N 		-0.60179
N 1.0  		0.47519785189372526 		0.3211167640223604  0.5651653903140006 		Uiso   ? 		N 		-0.60179
N 1.0  		0.21433955153570755 		0.5784419948495698  0.5655224120387726 		Uiso   ? 		N 		-0.60179
N 1.0  		0.9810156397211232 		0.8218312291941462  0.562844749102983 		Uiso   ? 		N 		-0.60179
N 1.0  		0.9731643740971045 		0.07262420702217198  0.4103964726253593 		Uiso   ? 		N 		-0.60311
N 1.0  		0.4761792600967276 		0.5707870108661517  0.4139666898730788 		Uiso   ? 		N 		-0.60311
N 1.0  		0.22140569059732423 		0.8245791721625526  0.4082543422767276 		Uiso   ? 		N 		-0.60311
N 1.0  		0.7568620061553922 		0.39904057534074494  0.4516324818365198 		Uiso   ? 		N 		-0.60311
N 1.0  		0.72212015576911 		0.8214386659129451  0.4109320052125172 		Uiso   ? 		N 		-0.60311
N 1.0  		0.4630283901764965 		0.0763535581935808  0.41057498348774524 		Uiso   ? 		N 		-0.60311
N 1.0  		0.21610608630111172 		0.32661264995917344  0.41360966814830685 		Uiso   ? 		N 		-0.60311
N 1.0  		0.978071415112116 		0.5733386721939576  0.41128902693728914 		Uiso   ? 		N 		-0.60311
N 1.0  		0.9739495006595064 		0.06889485585076315  0.7140434495439048 		Uiso   ? 		N 		-0.60292
N 1.0  		0.46793543119150804 		0.5749089253187614  0.7206483514521859 		Uiso   ? 		N 		-0.60292
N 1.0  		0.21728377614471447 		0.8251680170843539  0.7208268623145719 		Uiso   ? 		N 		-0.60292
N 1.0  		0.717016833113498 		0.32661264995917344  0.7222549492136597 		Uiso   ? 		N 		-0.60292
N 1.0  		0.7179982413165003 		0.8253642987249545  0.7229689926632036 		Uiso   ? 		N 		-0.60292
N 1.0  		0.4714685007223165 		0.07360561522517431  0.7235045252503615 		Uiso   ? 		N 		-0.60292
N 1.0  		0.21375070661390613 		0.32700521324037435  0.7197557971402561 		Uiso   ? 		N 		-0.60292
N 1.0  		0.9592283776144714 		0.5811899378179762  0.7245755904246775 		Uiso   ? 		N 		-0.60292
Ti 1.0  		0.03336787890207899 		0.4320158909616231  0.19082811189060855 		Uiso   ? 		Ti 		2.12981
Ti 1.0  		0.534278625714465 		0.931552666289806  0.1899355575786787 		Uiso   ? 		Ti 		2.12981
Ti 1.0  		0.28617863199547766 		0.18214936247723135  0.1852942751566433 		Uiso   ? 		Ti 		2.12981
Ti 1.0  		0.7843414358394574 		0.6824712643678161  0.18636534033095917 		Uiso   ? 		Ti 		2.12981
Ti 1.0  		0.7865005338860624 		0.17842001130582252  0.18475874256948535 		Uiso   ? 		Ti 		2.12981
Ti 1.0  		0.5342786257144652 		0.43044563783681933  0.18636534033095917 		Uiso   ? 		Ti 		2.12981
Ti 1.0  		0.2836269706676716 		0.6822749827272157  0.18243810135846766 		Uiso   ? 		Ti 		2.12981
Ti 1.0  		0.03925632812009291 		0.931160103008605  0.1845802317070994 		Uiso   ? 		Ti 		2.12981
Ti 1.0  		0.03336787890207899 		0.4302493561962189  0.49340402363483815 		Uiso   ? 		Ti 		2.09469
Ti 1.0  		0.5327083725896614 		0.9344968908988129  0.4925114693229083 		Uiso   ? 		Ti 		2.09469
Ti 1.0  		0.2850009421518749 		0.1813642359148295  0.49197593673575035 		Uiso   ? 		Ti 		2.09469
Ti 1.0  		0.7819860561522518 		0.6814898561648138  0.49268998018529425 		Uiso   ? 		Ti 		2.09469
Ti 1.0  		0.7847339991206583 		0.17881257458702343  0.495010621396312 		Uiso   ? 		Ti 		2.09469
Ti 1.0  		0.5311381194648578 		0.43260473588342446  0.4957246648458559 		Uiso   ? 		Ti 		2.09469
Ti 1.0  		0.2861786319954776 		0.6826675460084166  0.49072636069904857 		Uiso   ? 		Ti 		2.09469
Ti 1.0  		0.032975315620878035 		0.931160103008605  0.49268998018529425 		Uiso   ? 		Ti 		2.09469
Ti 1.0  		0.036312103511085964 		0.43299729916462537  0.8038344133240508 		Uiso   ? 		Ti 		2.13411
Ti 1.0  		0.5319232460272595 		0.9356745807424158  0.8022278155625769 		Uiso   ? 		Ti 		2.13411
Ti 1.0  		0.2850009421518749 		0.1817567991960304  0.8034773915992789 		Uiso   ? 		Ti 		2.13411
Ti 1.0  		0.7825749010740533 		0.6838452358520194  0.8007997286634891 		Uiso   ? 		Ti 		2.13411
Ti 1.0  		0.7849302807612588 		0.1850935870862383  0.8038344133240508 		Uiso   ? 		Ti 		2.13411
Ti 1.0  		0.5331009358708625 		0.43260473588342446  0.8041914350488227 		Uiso   ? 		Ti 		2.13411
Ti 1.0  		0.28166415426166697 		0.6814898561648138  0.8036559024616649 		Uiso   ? 		Ti 		2.13411
Ti 1.0  		0.03160134413667478 		0.9339080459770116  0.8045484567735947 		Uiso   ? 		Ti 		2.13411
Ti 1.0  		0.8243828905219522 		0.2781310847308586  0.1667291454685018 		Uiso   ? 		Ti 		2.09204
Ti 1.0  		0.32288329878776456 		0.7802195213868476  0.17047787357860728 		Uiso   ? 		Ti 		2.09204
Ti 1.0  		0.07458702342817662 		0.027479429684065075  0.1678002106428176 		Uiso   ? 		Ti 		2.09204
Ti 1.0  		0.5703944475849507 		0.5301567112618555  0.17172744961530909 		Uiso   ? 		Ti 		2.09204
Ti 1.0  		0.572160982350355 		0.02983480937127065  0.17101340616576519 		Uiso   ? 		Ti 		2.09204
Ti 1.0  		0.3201353558193581 		0.28029018277746376  0.17119191702815117 		Uiso   ? 		Ti 		2.09204
Ti 1.0  		0.07046510897556683 		0.529567866340054  0.16922829754190544 		Uiso   ? 		Ti 		2.09204
Ti 1.0  		0.822616355756548 		0.7812009295898499  0.1688712758171335 		Uiso   ? 		Ti 		2.09204
Ti 1.0  		0.8192795678663402 		0.28087902769926515  0.4835859262036095 		Uiso   ? 		Ti 		2.10498
Ti 1.0  		0.32033163745995846 		0.7829674643552541  0.48126528499259186 		Uiso   ? 		Ti 		2.10498
Ti 1.0  		0.07282048866277244 		0.031208780855473905  0.4793016655063461 		Uiso   ? 		Ti 		2.10498
Ti 1.0  		0.5690204761007475 		0.5323158093084606  0.48465699137792534 		Uiso   ? 		Ti 		2.10498
Ti 1.0  		0.572160982350355 		0.03415300546448087  0.48197932844213576 		Uiso   ? 		Ti 		2.10498
Ti 1.0  		0.3193502292569562 		0.281664154261667  0.4835859262036095 		Uiso   ? 		Ti 		2.10498
Ti 1.0  		0.0673246027259594 		0.5319232460272596  0.4809082632678199 		Uiso   ? 		Ti 		2.10498
Ti 1.0  		0.8184944413039382 		0.7812009295898499  0.480194219818276 		Uiso   ? 		Ti 		2.10498
Ti 1.0  		0.8204572577099428 		0.28617863199547766  0.7881254574340849 		Uiso   ? 		Ti 		2.10769
Ti 1.0  		0.3181725394133534 		0.7827711827146536  0.7888395008836288 		Uiso   ? 		Ti 		2.10769
Ti 1.0  		0.06909113749136361 		0.03474185038628227  0.7888395008836288 		Uiso   ? 		Ti 		2.10769
Ti 1.0  		0.568824194460147 		0.5336897807926638  0.7875899248469269 		Uiso   ? 		Ti 		2.10769
Ti 1.0  		0.5707870108661517 		0.03474185038628227  0.7856263053606812 		Uiso   ? 		Ti 		2.10769
Ti 1.0  		0.3207242007411595 		0.284215815589473  0.7886609900212429 		Uiso   ? 		Ti 		2.10769
Ti 1.0  		0.07301677030337288 		0.5362414421204699  0.7886609900212429 		Uiso   ? 		Ti 		2.10769
Ti 1.0  		0.8179055963821368 		0.7835563092770556  0.7895535443331727 		Uiso   ? 		Ti 		2.10769
Ti 1.0  		0.03493813202688272 		0.18077539099302808  0.337742551634267 		Uiso   ? 		Ti 		2.09160
Ti 1.0  		0.5311381194648578 		0.6793307581182086  0.33470786697370536 		Uiso   ? 		Ti 		2.09160
Ti 1.0  		0.281271590980466 		0.9317489479304064  0.337028508184723 		Uiso   ? 		Ti 		2.09160
Ti 1.0  		0.7839488725582565 		0.42966051127441746  0.33470786697370536 		Uiso   ? 		Ti 		2.09160
Ti 1.0  		0.783360027636455 		0.9288047233213995  0.33470786697370536 		Uiso   ? 		Ti 		2.09160
Ti 1.0  		0.5327083725896615 		0.17920513786822437  0.33863510594619683 		Uiso   ? 		Ti 		2.09160
Ti 1.0  		0.2824492808240689 		0.4310344827586208  0.34006319284528463 		Uiso   ? 		Ti 		2.09160
Ti 1.0  		0.02944224609006968 		0.6824712643678161  0.33506488869847734 		Uiso   ? 		Ti 		2.09160
Ti 1.0  		0.03356416054267947 		0.18430846052383645  0.6479944304610936 		Uiso   ? 		Ti 		2.09461
Ti 1.0  		0.5348674706362666 		0.6822749827272157  0.6485299630482515 		Uiso   ? 		Ti 		2.09461
Ti 1.0  		0.28382325230827204 		0.9325340744928083  0.6472803870115497 		Uiso   ? 		Ti 		2.09461
Ti 1.0  		0.7861079706048615 		0.4324084542428239  0.6478159195987077 		Uiso   ? 		Ti 		2.09461
Ti 1.0  		0.78551912568306 		0.9329266377740093  0.6474588978739356 		Uiso   ? 		Ti 		2.09461
Ti 1.0  		0.535456315558068 		0.1813642359148295  0.6490654956354095 		Uiso   ? 		Ti 		2.09461
Ti 1.0  		0.2844120972300735 		0.42946422963381703  0.6474588978739356 		Uiso   ? 		Ti 		2.09461
Ti 1.0  		0.03297531562087805 		0.6850229256956222  0.6481729413234796 		Uiso   ? 		Ti 		2.09461
Ti 1.0  		0.0690911374913636 		0.28127159098046606  0.3272104107534944 		Uiso   ? 		Ti 		2.10447
Ti 1.0  		0.5678427862571447 		0.7788455499026443  0.3263178564415645 		Uiso   ? 		Ti 		2.10447
Ti 1.0  		0.32131304566296087 		0.030816217574272976  0.3264963673039505 		Uiso   ? 		Ti 		2.10447
Ti 1.0  		0.8155502166949313 		0.529960429621255  0.32381870436816085 		Uiso   ? 		Ti 		2.10447
Ti 1.0  		0.8182981596633377 		0.03140506249607437  0.32667487816633645 		Uiso   ? 		Ti 		2.10447
Ti 1.0  		0.5686279128195465 		0.27871992965266  0.3291740302397401 		Uiso   ? 		Ti 		2.10447
Ti 1.0  		0.3166022862885497 		0.5309418378242573  0.32667487816633645 		Uiso   ? 		Ti 		2.10447
Ti 1.0  		0.06850229256956217 		0.7813972112304504  0.32453274781770475 		Uiso   ? 		Ti 		2.10447
Ti 1.0  		0.0724279253815715 		0.28303812574587023  0.6365697352683911 		Uiso   ? 		Ti 		2.10686
Ti 1.0  		0.5701981659443502 		0.7817897745116513  0.6392473982041808 		Uiso   ? 		Ti 		2.10686
Ti 1.0  		0.3183688210539539 		0.031208780855473905  0.637283778717935 		Uiso   ? 		Ti 		2.10686
Ti 1.0  		0.8237940456001508 		0.5336897807926638  0.6362127135436192 		Uiso   ? 		Ti 		2.10686
Ti 1.0  		0.8230089190377489 		0.0351344136674832  0.637819311305093 		Uiso   ? 		Ti 		2.10686
Ti 1.0  		0.5715721374285535 		0.27970133785566237  0.6387118656170228 		Uiso   ? 		Ti 		2.10686
Ti 1.0  		0.31935022925695616 		0.5297641479806545  0.6358556918188472 		Uiso   ? 		Ti 		2.10686
Ti 1.0  		0.07046510897556682 		0.7833600276364551  0.6351416483693033 		Uiso   ? 		Ti 		2.10686
Ti 1.0  		0.9747346272219083 		0.06516550467935432  0.18797193809243293 		Uiso   ? 		Ti 		2.11682
Ti 1.0  		0.4712722190817159 		0.5648985616481378  0.18886449240436282 		Uiso   ? 		Ti 		2.11682
Ti 1.0  		0.22258338044092701 		0.8157464983355317  0.18565129688141524 		Uiso   ? 		Ti 		2.11682
Ti 1.0  		0.7231015639721123 		0.31699484956975066  0.18493725343187134 		Uiso   ? 		Ti 		2.11682
Ti 1.0  		0.722512719050311 		0.8163353432573331  0.18547278601902925 		Uiso   ? 		Ti 		2.11682
Ti 1.0  		0.47225362728471837 		0.06791344764776082  0.18779342723004697 		Uiso   ? 		Ti 		2.11682
Ti 1.0  		0.22081684567552287 		0.3162097230073488  0.1906496010282226 		Uiso   ? 		Ti 		2.11682
Ti 1.0  		0.9696313045662962 		0.5664688147729414  0.1851157642942573 		Uiso   ? 		Ti 		2.11682
Ti 1.0  		0.9723792475347026 		0.06712832108535897  0.4903693389742766 		Uiso   ? 		Ti 		2.09236
Ti 1.0  		0.46891683939451034 		0.5682353495383456  0.49233295846052233 		Uiso   ? 		Ti 		2.09236
Ti 1.0  		0.21708749450411405 		0.8182981596633377  0.49072636069904857 		Uiso   ? 		Ti 		2.09236
Ti 1.0  		0.7193722128007035 		0.3195465108975567  0.4937610453596102 		Uiso   ? 		Ti 		2.09236
Ti 1.0  		0.7174093963946988 		0.8194758495069405  0.49233295846052233 		Uiso   ? 		Ti 		2.09236
Ti 1.0  		0.4716647823629169 		0.06850229256956221  0.4925114693229083 		Uiso   ? 		Ti 		2.09236
Ti 1.0  		0.2196391558319201 		0.3189576659757553  0.49393955622199615 		Uiso   ? 		Ti 		2.09236
Ti 1.0  		0.9684536147226934 		0.5674502229759437  0.4917974258733644 		Uiso   ? 		Ti 		2.09236
Ti 1.0  		0.9708089944098989 		0.07105395389736825  0.8020493047001911 		Uiso   ? 		Ti 		2.12838
Ti 1.0  		0.4702908108787136 		0.5700018843037498  0.8031203698745069 		Uiso   ? 		Ti 		2.12838
Ti 1.0  		0.22062056403492242 		0.8214386659129451  0.8034773915992789 		Uiso   ? 		Ti 		2.12838
Ti 1.0  		0.7211387475661077 		0.3228832987877646  0.8052625002231386 		Uiso   ? 		Ti 		2.12838
Ti 1.0  		0.7189796495195026 		0.8228126373971485  0.8065120762598404 		Uiso   ? 		Ti 		2.12838
Ti 1.0  		0.4716647823629169 		0.07144651717856919  0.8050839893607526 		Uiso   ? 		Ti 		2.12838
Ti 1.0  		0.2235647886439294 		0.3211167640223604  0.8040129241864367 		Uiso   ? 		Ti 		2.12838
Ti 1.0  		0.9717904026129012 		0.571375855787953  0.8049054784983667 		Uiso   ? 		Ti 		2.12838
Ti 1.0  		0.18411217888323597 		0.21728377614471453  0.17137042789053714 		Uiso   ? 		Ti 		2.08551
Ti 1.0  		0.6842377991332204 		0.7168205514728975  0.17119191702815117 		Uiso   ? 		Ti 		2.08551
Ti 1.0  		0.4353526788518309 		0.9680610514414925  0.17190596047769507 		Uiso   ? 		Ti 		2.08551
Ti 1.0  		0.9335154826958106 		0.46832799447270906  0.1695853192666774 		Uiso   ? 		Ti 		2.08551
Ti 1.0  		0.9358708623830161 		0.9672759248790905  0.1694068084042914 		Uiso   ? 		Ti 		2.08551
Ti 1.0  		0.6865931788204259 		0.217480057785315  0.172441493064853 		Uiso   ? 		Ti 		2.08551
Ti 1.0  		0.4329972991646253 		0.46538376986370206  0.1731555365143969 		Uiso   ? 		Ti 		2.08551
Ti 1.0  		0.18332705232083407 		0.7154465799886942  0.1701208518538353 		Uiso   ? 		Ti 		2.08551
Ti 1.0  		0.18411217888323597 		0.2208168456755229  0.4830503936164516 		Uiso   ? 		Ti 		2.10206
Ti 1.0  		0.6822749827272157 		0.7203536210037058  0.4816223067173638 		Uiso   ? 		Ti 		2.10206
Ti 1.0  		0.434567552289429 		0.9690424596444948  0.4814437958549778 		Uiso   ? 		Ti 		2.10206
Ti 1.0  		0.9331229194146096 		0.4669540229885058  0.47983719809350406 		Uiso   ? 		Ti 		2.10206
Ti 1.0  		0.9325340744928082 		0.9660982350354878  0.4814437958549778 		Uiso   ? 		Ti 		2.10206
Ti 1.0  		0.6848266440550217 		0.21905031091011876  0.48251486102929364 		Uiso   ? 		Ti 		2.10206
Ti 1.0  		0.43221217260222344 		0.46989824759751275  0.480194219818276 		Uiso   ? 		Ti 		2.10206
Ti 1.0  		0.18411217888323592 		0.7185870862383017  0.48055124154304796 		Uiso   ? 		Ti 		2.10206
Ti 1.0  		0.18666384021104201 		0.2198354374725206  0.787768435709313 		Uiso   ? 		Ti 		2.11084
Ti 1.0  		0.6818824194460148 		0.7217275924879091  0.7908031203698745 		Uiso   ? 		Ti 		2.11084
Ti 1.0  		0.43280101752402483 		0.9721829658941022  0.7852692836359093 		Uiso   ? 		Ti 		2.11084
Ti 1.0  		0.9372448338672196 		0.4706833741599146  0.786518859672611 		Uiso   ? 		Ti 		2.11084
Ti 1.0  		0.9329266377740092 		0.9712015576911  0.7902675877827166 		Uiso   ? 		Ti 		2.11084
Ti 1.0  		0.6858080522580241 		0.22238709880032662  0.787411413984541 		Uiso   ? 		Ti 		2.11084
Ti 1.0  		0.43574524213303184 		0.4687205577539099  0.7856263053606812 		Uiso   ? 		Ti 		2.11084
Ti 1.0  		0.18352333396143455 		0.7223164374097105  0.7881254574340849 		Uiso   ? 		Ti 		2.11084
Ti 1.0  		0.9694350229256957 		0.3148357515231456  0.3384565950838109 		Uiso   ? 		Ti 		2.09497
Ti 1.0  		0.46950568431631173 		0.8177093147415364  0.3407772362948286 		Uiso   ? 		Ti 		2.09497
Ti 1.0  		0.2217982538785252 		0.06712832108535897  0.3368499973223371 		Uiso   ? 		Ti 		2.09497
Ti 1.0  		0.7160354249104957 		0.5645059983669367  0.337564040771881 		Uiso   ? 		Ti 		2.09497
Ti 1.0  		0.7207461842849068 		0.06810972928836129  0.3384565950838109 		Uiso   ? 		Ti 		2.09497
Ti 1.0  		0.4677391495509076 		0.3193502292569562  0.337742551634267 		Uiso   ? 		Ti 		2.09497
Ti 1.0  		0.21512467809810942 		0.5690204761007475  0.3345293561113194 		Uiso   ? 		Ti 		2.09497
Ti 1.0  		0.9692387412850951 		0.8149613717731299  0.337028508184723 		Uiso   ? 		Ti 		2.09497
Ti 1.0  		0.9721829658941022 		0.32150932730356135  0.6487084739106375 		Uiso   ? 		Ti 		2.08990
Ti 1.0  		0.4698982475975127 		0.8171204698197351  0.6483514521858655 		Uiso   ? 		Ti 		2.08990
Ti 1.0  		0.21885402926951825 		0.06810972928836129  0.6471018761491637 		Uiso   ? 		Ti 		2.08990
Ti 1.0  		0.72212015576911 		0.568824194460147  0.6488869847730234 		Uiso   ? 		Ti 		2.08990
Ti 1.0  		0.7207461842849068 		0.06752088436655988  0.6479944304610936 		Uiso   ? 		Ti 		2.08990
Ti 1.0  		0.4718610640035174 		0.3148357515231456  0.6497795390849533 		Uiso   ? 		Ti 		2.08990
Ti 1.0  		0.21924659255071915 		0.5666650964135419  0.6446027240757601 		Uiso   ? 		Ti 		2.08990
Ti 1.0  		0.9717904026129012 		0.8216349475535457  0.6463878326996199 		Uiso   ? 		Ti 		2.08990
Ti 1.0  		0.9348894541800139 		0.2141432698951071  0.32667487816633645 		Uiso   ? 		Ti 		2.09971
Ti 1.0  		0.4310344827586207 		0.717016833113498  0.32488976954247667 		Uiso   ? 		Ti 		2.09971
Ti 1.0  		0.1821493624772313 		0.9686498963632938  0.32417572609293277 		Uiso   ? 		Ti 		2.09971
Ti 1.0  		0.6824712643678161 		0.46440236166069976  0.3291740302397401 		Uiso   ? 		Ti 		2.09971
Ti 1.0  		0.6818824194460147 		0.9659019533948874  0.3279244542030383 		Uiso   ? 		Ti 		2.09971
Ti 1.0  		0.4318196093210226 		0.21865774762891782  0.3291740302397401 		Uiso   ? 		Ti 		2.09971
Ti 1.0  		0.18234564411783177 		0.4697019659569122  0.3268533890287224 		Uiso   ? 		Ti 		2.09971
Ti 1.0  		0.931552666289806 		0.7150540167074932  0.32381870436816085 		Uiso   ? 		Ti 		2.09971
Ti 1.0  		0.9354782991018152 		0.2214056905973243  0.6379978221674789 		Uiso   ? 		Ti 		2.10492
Ti 1.0  		0.4335861440864267 		0.717016833113498  0.637640800442707 		Uiso   ? 		Ti 		2.10492
Ti 1.0  		0.18254192575843223 		0.9702201494880974  0.637640800442707 		Uiso   ? 		Ti 		2.10492
Ti 1.0  		0.6863968971798254 		0.4685242761133095  0.6392473982041808 		Uiso   ? 		Ti 		2.10492
Ti 1.0  		0.685415488976823 		0.9680610514414925  0.6365697352683911 		Uiso   ? 		Ti 		2.10492
Ti 1.0  		0.43456755228942906 		0.21473211481690851  0.6388903764794088 		Uiso   ? 		Ti 		2.10492
Ti 1.0  		0.18371961560203504 		0.4677391495509076  0.6365697352683911 		Uiso   ? 		Ti 		2.10492
Ti 1.0  		0.9344968908988129 		0.7217275924879091  0.6346061157821454 		Uiso   ? 		Ti 		2.10492
Ti 1.0  		0.8216349475535457 		0.2159098046605113  0.18565129688141524 		Uiso   ? 		Ti 		2.14890
Ti 1.0  		0.3213130456629608 		0.7174093963946988  0.18279512308323964 		Uiso   ? 		Ti 		2.14890
Ti 1.0  		0.0749795867093775 		0.9655093901136863  0.1858298077438012 		Uiso   ? 		Ti 		2.14890
Ti 1.0  		0.5701981659443502 		0.4665614597073048  0.18743640550527502 		Uiso   ? 		Ti 		2.14890
Ti 1.0  		0.5705907292255511 		0.9655093901136863  0.1858298077438012 		Uiso   ? 		Ti 		2.14890
Ti 1.0  		0.3201353558193581 		0.21885402926951825  0.18957853585390674 		Uiso   ? 		Ti 		2.14890
Ti 1.0  		0.07026882733496637 		0.4669540229885058  0.18779342723004697 		Uiso   ? 		Ti 		2.14890
Ti 1.0  		0.8208498209911439 		0.7174093963946988  0.18547278601902925 		Uiso   ? 		Ti 		2.14890
Ti 1.0  		0.8216349475535457 		0.2180689027071164  0.49465359967154005 		Uiso   ? 		Ti 		2.10479
Ti 1.0  		0.32249073550656365 		0.7205499026443063  0.4935825344972242 		Uiso   ? 		Ti 		2.10479
Ti 1.0  		0.07203536210037052 		0.9676684881602915  0.49126189328620645 		Uiso   ? 		Ti 		2.10479
Ti 1.0  		0.5694130393819483 		0.4704870925193141  0.4962601974330138 		Uiso   ? 		Ti 		2.10479
Ti 1.0  		0.5717684190691539 		0.9712015576911  0.4925114693229083 		Uiso   ? 		Ti 		2.10479
Ti 1.0  		0.32209817222536274 		0.21924659255071918  0.4928684910476803 		Uiso   ? 		Ti 		2.10479
Ti 1.0  		0.06889485585076312 		0.4697019659569122  0.49268998018529425 		Uiso   ? 		Ti 		2.10479
Ti 1.0  		0.8208498209911439 		0.7183908045977012  0.49090487156143453 		Uiso   ? 		Ti 		2.10479
Ti 1.0  		0.8224200741159476 		0.222975943722128  0.8025848372873491 		Uiso   ? 		Ti 		2.09492
Ti 1.0  		0.31935022925695616 		0.7193722128007035  0.8045484567735947 		Uiso   ? 		Ti 		2.09492
Ti 1.0  		0.06967998241316495 		0.9717904026129012  0.8052625002231386 		Uiso   ? 		Ti 		2.09492
Ti 1.0  		0.5696093210225489 		0.47029081087871366  0.8043699459112088 		Uiso   ? 		Ti 		2.09492
Ti 1.0  		0.5696093210225488 		0.9729680924565041  0.8034773915992789 		Uiso   ? 		Ti 		2.09492
Ti 1.0  		0.32131304566296087 		0.22101312731612335  0.8056195219479105 		Uiso   ? 		Ti 		2.09492
Ti 1.0  		0.07301677030337288 		0.47225362728471837  0.8036559024616649 		Uiso   ? 		Ti 		2.09492
Ti 1.0  		0.8208498209911439 		0.719568494441304  0.7993716417644013 		Uiso   ? 		Ti 		2.09492
Ti 1.0  		0.9710052760504995 		0.43044563783681933  0.17333404737678287 		Uiso   ? 		Ti 		2.11524
Ti 1.0  		0.47343131712832104 		0.9299824131650023  0.17440511255109875 		Uiso   ? 		Ti 		2.11524
Ti 1.0  		0.2219945355191257 		0.1795977011494253  0.17119191702815117 		Uiso   ? 		Ti 		2.11524
Ti 1.0  		0.7215313108473087 		0.677367941712204  0.17333404737678287 		Uiso   ? 		Ti 		2.11524
Ti 1.0  		0.7229052823315119 		0.1795977011494253  0.17154893875292312 		Uiso   ? 		Ti 		2.11524
Ti 1.0  		0.4706833741599146 		0.4278939765090133  0.17154893875292312 		Uiso   ? 		Ti 		2.11524
Ti 1.0  		0.22062056403492245 		0.6785456315558068  0.16815723236758956 		Uiso   ? 		Ti 		2.11524
Ti 1.0  		0.9745383455813076 		0.9303749764462033  0.16976383012906335 		Uiso   ? 		Ti 		2.11524
Ti 1.0  		0.9713978393317003 		0.4302493561962189  0.4816223067173638 		Uiso   ? 		Ti 		2.11070
Ti 1.0  		0.46970196595691216 		0.9297861315244018  0.4835859262036095 		Uiso   ? 		Ti 		2.11070
Ti 1.0  		0.2217982538785252 		0.18293448903963322  0.48180081757974974 		Uiso   ? 		Ti 		2.11070
Ti 1.0  		0.7197647760819044 		0.6818824194460148  0.4828718827540656 		Uiso   ? 		Ti 		2.11070
Ti 1.0  		0.7219238741285096 		0.18057910935242763  0.4837644370659955 		Uiso   ? 		Ti 		2.11070
Ti 1.0  		0.4689168393945104 		0.43162332768042205  0.48340741534122356 		Uiso   ? 		Ti 		2.11070
Ti 1.0  		0.22258338044092701 		0.6810972928836129  0.4814437958549778 		Uiso   ? 		Ti 		2.11070
Ti 1.0  		0.9708089944098988 		0.929393568243201  0.4816223067173638 		Uiso   ? 		Ti 		2.11070
Ti 1.0  		0.9739495006595064 		0.43338986244582633  0.7856263053606812 		Uiso   ? 		Ti 		2.11630
Ti 1.0  		0.46813171283210847 		0.9368522705860185  0.7875899248469269 		Uiso   ? 		Ti 		2.11630
Ti 1.0  		0.2217982538785252 		0.18214936247723135  0.787768435709313 		Uiso   ? 		Ti 		2.11630
Ti 1.0  		0.7197647760819044 		0.6879671503046291  0.787054392259769 		Uiso   ? 		Ti 		2.11630
Ti 1.0  		0.7209424659255073 		0.18646755857044156  0.7868758813973832 		Uiso   ? 		Ti 		2.11630
Ti 1.0  		0.47029081087871366 		0.43260473588342446  0.786518859672611 		Uiso   ? 		Ti 		2.11630
Ti 1.0  		0.21983543747252055 		0.686200615539225  0.7850907727735232 		Uiso   ? 		Ti 		2.11630
Ti 1.0  		0.969238741285095 		0.9343006092582125  0.7881254574340849 		Uiso   ? 		Ti 		2.11630
Ti 1.0  		0.0712502355379687 		0.21885402926951825  0.3384565950838109 		Uiso   ? 		Ti 		2.10471
Ti 1.0  		0.5682353495383456 		0.7164279881916965  0.33506488869847734 		Uiso   ? 		Ti 		2.10471
Ti 1.0  		0.320527919100559 		0.9684536147226934  0.337385529909495 		Uiso   ? 		Ti 		2.10471
Ti 1.0  		0.8204572577099428 		0.46636517806670436  0.3331012692122316 		Uiso   ? 		Ti 		2.10471
Ti 1.0  		0.8208498209911438 		0.9674722065196911  0.33435084524893344 		Uiso   ? 		Ti 		2.10471
Ti 1.0  		0.5719647007097545 		0.21610608630111175  0.3389921276709688 		Uiso   ? 		Ti 		2.10471
Ti 1.0  		0.31974279253815713 		0.4697019659569122  0.3389921276709688 		Uiso   ? 		Ti 		2.10471
Ti 1.0  		0.06791344764776078 		0.7197647760819044  0.3356004212856352 		Uiso   ? 		Ti 		2.10471
Ti 1.0  		0.07164279881916964 		0.2214056905973243  0.6499580499473393 		Uiso   ? 		Ti 		2.10322
Ti 1.0  		0.5719647007097545 		0.719961057722505  0.6494225173601814 		Uiso   ? 		Ti 		2.10322
Ti 1.0  		0.3215093273035613 		0.9686498963632938  0.6478159195987077 		Uiso   ? 		Ti 		2.10322
Ti 1.0  		0.8234014823189499 		0.47107593744111553  0.6467448544243918 		Uiso   ? 		Ti 		2.10322
Ti 1.0  		0.8222237924753469 		0.9712015576911  0.6471018761491637 		Uiso   ? 		Ti 		2.10322
Ti 1.0  		0.5723572639909553 		0.21846146598831734  0.6494225173601814 		Uiso   ? 		Ti 		2.10322
Ti 1.0  		0.32249073550656365 		0.4667577413479053  0.6467448544243918 		Uiso   ? 		Ti 		2.10322
Ti 1.0  		0.07203536210037054 		0.7209424659255073  0.6463878326996199 		Uiso   ? 		Ti 		2.10322
Ti 1.0  		0.9713978393317003 		0.17724232146221972  0.32578232385440653 		Uiso   ? 		Ti 		2.11068
Ti 1.0  		0.46793543119150804 		0.6777605049934049  0.32506828040486263 		Uiso   ? 		Ti 		2.11068
Ti 1.0  		0.22081684567552284 		0.9301786948056027  0.32310466091861695 		Uiso   ? 		Ti 		2.11068
Ti 1.0  		0.7219238741285096 		0.4276976948684128  0.3270318998911084 		Uiso   ? 		Ti 		2.11068
Ti 1.0  		0.7193722128007034 		0.9288047233213995  0.3277459433406523 		Uiso   ? 		Ti 		2.11068
Ti 1.0  		0.46989824759751275 		0.1813642359148295  0.32810296506542425 		Uiso   ? 		Ti 		2.11068
Ti 1.0  		0.21905031091011873 		0.4314270460398216  0.3295310519645121 		Uiso   ? 		Ti 		2.11068
Ti 1.0  		0.9674722065196911 		0.677367941712204  0.32435423695531873 		Uiso   ? 		Ti 		2.11068
Ti 1.0  		0.9713978393317003 		0.18214936247723135  0.636926756993163 		Uiso   ? 		Ti 		2.11204
Ti 1.0  		0.4722536272847183 		0.6812935745242134  0.637105267855549 		Uiso   ? 		Ti 		2.11204
Ti 1.0  		0.22120940895672378 		0.9327303561334087  0.6360342026812332 		Uiso   ? 		Ti 		2.11204
Ti 1.0  		0.7223164374097105 		0.43044563783681933  0.6387118656170228 		Uiso   ? 		Ti 		2.11204
Ti 1.0  		0.7232978456127127 		0.9313563846492056  0.637283778717935 		Uiso   ? 		Ti 		2.11204
Ti 1.0  		0.4734313171283211 		0.1780274480246216  0.6379978221674789 		Uiso   ? 		Ti 		2.11204
Ti 1.0  		0.2223870988003266 		0.4322121726022235  0.636926756993163 		Uiso   ? 		Ti 		2.11204
Ti 1.0  		0.9706127127692985 		0.6828638276490171  0.637819311305093 		Uiso   ? 		Ti 		2.11204
Ti 1.0  		0.18430846052383643 		0.28087902769926515  0.18815044895481892 		Uiso   ? 		Ti 		2.12271
Ti 1.0  		0.6860043338986245 		0.7806120846680485  0.18475874256948535 		Uiso   ? 		Ti 		2.12271
Ti 1.0  		0.43633408705483323 		0.03238647069907669  0.18547278601902925 		Uiso   ? 		Ti 		2.12271
Ti 1.0  		0.9333192010552102 		0.5315306827460587  0.18475874256948535 		Uiso   ? 		Ti 		2.12271
Ti 1.0  		0.9368522705860185 		0.02983480937127065  0.18618682946857315 		Uiso   ? 		Ti 		2.12271
Ti 1.0  		0.6883597135858301 		0.28048646441806424  0.18832895981720488 		Uiso   ? 		Ti 		2.12271
Ti 1.0  		0.4339787073676276 		0.5281938948558508  0.18832895981720488 		Uiso   ? 		Ti 		2.12271
Ti 1.0  		0.18587871364864011 		0.777864141699642  0.1852942751566433 		Uiso   ? 		Ti 		2.12271
Ti 1.0  		0.18156051755542993 		0.2834306890270712  0.49393955622199615 		Uiso   ? 		Ti 		2.10655
Ti 1.0  		0.6785456315558068 		0.7819860561522518  0.49268998018529425 		Uiso   ? 		Ti 		2.10655
Ti 1.0  		0.4322121726022235 		0.031993907417875764  0.49161891501097843 		Uiso   ? 		Ti 		2.10655
Ti 1.0  		0.931160103008605 		0.5297641479806545  0.48787018690087297 		Uiso   ? 		Ti 		2.10655
Ti 1.0  		0.9352820174612148 		0.030031091011871115  0.48947678466234673 		Uiso   ? 		Ti 		2.10655
Ti 1.0  		0.6807047296024119 		0.28205671754286793  0.4928684910476803 		Uiso   ? 		Ti 		2.10655
Ti 1.0  		0.4306419194774197 		0.5311381194648578  0.49090487156143453 		Uiso   ? 		Ti 		2.10655
Ti 1.0  		0.1794014195088248 		0.7813972112304504  0.49144040414859247 		Uiso   ? 		Ti 		2.10655
Ti 1.0  		0.1860749952892406 		0.2828418441052698  0.8041914350488227 		Uiso   ? 		Ti 		2.08616
Ti 1.0  		0.6799196030400101 		0.785911688964261  0.8061550545350685 		Uiso   ? 		Ti 		2.08616
Ti 1.0  		0.43397870736762767 		0.034938132026882736  0.8031203698745069 		Uiso   ? 		Ti 		2.08616
Ti 1.0  		0.9350857358206144 		0.5323158093084606  0.8038344133240508 		Uiso   ? 		Ti 		2.08616
Ti 1.0  		0.9319452295710069 		0.03415300546448087  0.8061550545350685 		Uiso   ? 		Ti 		2.08616
Ti 1.0  		0.6836489542114189 		0.284608378870674  0.8057980328102966 		Uiso   ? 		Ti 		2.08616
Ti 1.0  		0.4326047358834244 		0.5309418378242573  0.802406326424963 		Uiso   ? 		Ti 		2.08616
Ti 1.0  		0.1821493624772313 		0.7845377174800579  0.8027633481497349 		Uiso   ? 		Ti 		2.08616
Ti 1.0  		0.03513441366748319 		0.06457665975755292  0.16922829754190544 		Uiso   ? 		Ti 		2.09986
Ti 1.0  		0.5323158093084606 		0.5664688147729414  0.17083489530337923 		Uiso   ? 		Ti 		2.09986
Ti 1.0  		0.2859823503548772 		0.8184944413039382  0.17226298220246702 		Uiso   ? 		Ti 		2.09986
Ti 1.0  		0.7857154073236606 		0.31719113121035114  0.16762169978043165 		Uiso   ? 		Ti 		2.09986
Ti 1.0  		0.7857154073236606 		0.8196721311475411  0.1695853192666774 		Uiso   ? 		Ti 		2.09986
Ti 1.0  		0.5346711889956661 		0.06791344764776082  0.17279851478962496 		Uiso   ? 		Ti 		2.09986
Ti 1.0  		0.2834306890270712 		0.3197427925381572  0.17297702565201092 		Uiso   ? 		Ti 		2.09986
Ti 1.0  		0.03277903398027759 		0.5676465046165442  0.16833574322997555 		Uiso   ? 		Ti 		2.09986
Ti 1.0  		0.036115821870485516 		0.069679982413165  0.4823363501669077 		Uiso   ? 		Ti 		2.11066
Ti 1.0  		0.5315306827460587 		0.5703944475849507  0.48394294792838144 		Uiso   ? 		Ti 		2.11066
Ti 1.0  		0.2806827460586646 		0.8196721311475411  0.4816223067173638 		Uiso   ? 		Ti 		2.11066
Ti 1.0  		0.7821823377928522 		0.3189576659757553  0.4842999696531534 		Uiso   ? 		Ti 		2.11066
Ti 1.0  		0.7810046479492495 		0.8184944413039382  0.48251486102929364 		Uiso   ? 		Ti 		2.11066
Ti 1.0  		0.5336897807926638 		0.07125023553796872  0.4807297524054339 		Uiso   ? 		Ti 		2.11066
Ti 1.0  		0.28205671754286793 		0.31915394761635574  0.4835859262036095 		Uiso   ? 		Ti 		2.11066
Ti 1.0  		0.032582752339677126 		0.5694130393819483  0.4837644370659955 		Uiso   ? 		Ti 		2.11066
Ti 1.0  		0.03434928710508133 		0.07223164374097105  0.7861618379478391 		Uiso   ? 		Ti 		2.11651
Ti 1.0  		0.5332972175114629 		0.5707870108661517  0.7888395008836288 		Uiso   ? 		Ti 		2.11651
Ti 1.0  		0.28244928082406884 		0.8190832862257397  0.787054392259769 		Uiso   ? 		Ti 		2.11651
Ti 1.0  		0.7833600276364551 		0.32209817222536274  0.7875899248469269 		Uiso   ? 		Ti 		2.11651
Ti 1.0  		0.781593492871051 		0.8202609760693425  0.7908031203698745 		Uiso   ? 		Ti 		2.11651
Ti 1.0  		0.5346711889956661 		0.0708576722567678  0.787054392259769 		Uiso   ? 		Ti 		2.11651
Ti 1.0  		0.2844120972300735 		0.3201353558193581  0.7834841750120496 		Uiso   ? 		Ti 		2.11651
Ti 1.0  		0.033956723823880375 		0.5705907292255512  0.7852692836359093 		Uiso   ? 		Ti 		2.11651
Ti 1.0  		0.9319452295710069 		0.27695339488725584  0.3366714864599511 		Uiso   ? 		Ti 		2.10446
Ti 1.0  		0.43181960932102254 		0.7804158030274481  0.337564040771881 		Uiso   ? 		Ti 		2.10446
Ti 1.0  		0.18273820739903274 		0.03140506249607437  0.3366714864599511 		Uiso   ? 		Ti 		2.10446
Ti 1.0  		0.6783493499152063 		0.5276050499340494  0.3388136168085828 		Uiso   ? 		Ti 		2.10446
Ti 1.0  		0.6840415174926199 		0.02865711952766786  0.337564040771881 		Uiso   ? 		Ti 		2.10446
Ti 1.0  		0.42887538471201564 		0.28186043590226745  0.3388136168085828 		Uiso   ? 		Ti 		2.10446
Ti 1.0  		0.17626091325921736 		0.5313344011054582  0.3359574430104072 		Uiso   ? 		Ti 		2.10446
Ti 1.0  		0.9321415112116073 		0.7772752967778406  0.33934914939574073 		Uiso   ? 		Ti 		2.10446
Ti 1.0  		0.9343006092582125 		0.284215815589473  0.6488869847730234 		Uiso   ? 		Ti 		2.10606
Ti 1.0  		0.432015890961623 		0.7798269581056466  0.6472803870115497 		Uiso   ? 		Ti 		2.10606
Ti 1.0  		0.17920513786822437 		0.03277903398027762  0.6471018761491637 		Uiso   ? 		Ti 		2.10606
Ti 1.0  		0.6844340807738208 		0.5303529929024559  0.6496010282225674 		Uiso   ? 		Ti 		2.10606
Ti 1.0  		0.6834526725708185 		0.030031091011871115  0.6478159195987077 		Uiso   ? 		Ti 		2.10606
Ti 1.0  		0.43456755228942906 		0.27675711324665536  0.6496010282225674 		Uiso   ? 		Ti 		2.10606
Ti 1.0  		0.1805791093524276 		0.529567866340054  0.644959745800532 		Uiso   ? 		Ti 		2.10606
Ti 1.0  		0.9341043276176121 		0.7841451541988569  0.6447812349381461 		Uiso   ? 		Ti 		2.10606
Ti 1.0  		0.03199390741787574 		0.31777997613215253  0.3286384976525822 		Uiso   ? 		Ti 		2.11492
Ti 1.0  		0.5307455561836568 		0.816727906538534  0.3289955193773541 		Uiso   ? 		Ti 		2.11492
Ti 1.0  		0.2840195339488726 		0.06869857421016268  0.3254253021296346 		Uiso   ? 		Ti 		2.11492
Ti 1.0  		0.7780604233402425 		0.5680390678977452  0.32738892161588035 		Uiso   ? 		Ti 		2.11492
Ti 1.0  		0.7825749010740533 		0.07046510897556686  0.32810296506542425 		Uiso   ? 		Ti 		2.11492
Ti 1.0  		0.5311381194648578 		0.31777997613215253  0.330245095414056 		Uiso   ? 		Ti 		2.11492
Ti 1.0  		0.27930877457446135 		0.5678427862571447  0.32667487816633645 		Uiso   ? 		Ti 		2.11492
Ti 1.0  		0.03258275233967711 		0.820064694428742  0.32596083471679255 		Uiso   ? 		Ti 		2.11492
Ti 1.0  		0.0361158218704855 		0.3207242007411595  0.6387118656170228 		Uiso   ? 		Ti 		2.11418
Ti 1.0  		0.532512090949061 		0.8196721311475411  0.638354843892251 		Uiso   ? 		Ti 		2.11418
Ti 1.0  		0.2824492808240689 		0.06909113749136361  0.638176333029865 		Uiso   ? 		Ti 		2.11418
Ti 1.0  		0.7851265624018592 		0.5694130393819483  0.637283778717935 		Uiso   ? 		Ti 		2.11418
Ti 1.0  		0.7843414358394574 		0.0730167703033729  0.637640800442707 		Uiso   ? 		Ti 		2.11418
Ti 1.0  		0.5338860624332643 		0.31719113121035114  0.6388903764794088 		Uiso   ? 		Ti 		2.11418
Ti 1.0  		0.2836269706676716 		0.5674502229759437  0.637283778717935 		Uiso   ? 		Ti 		2.11418
Ti 1.0  		0.03356416054267944 		0.8206535393505434  0.6354986700940752 		Uiso   ? 		Ti 		2.11418
