           1 NEW SYSTEM
_cell_length_a  52.81522
_cell_length_b  52.81522
_cell_length_c  56.019001
_cell_angle_alpha 90.0
_cell_angle_beta  90.0
_cell_angle_gamma 90.0
_space_group_name_H-M_alt    'P 1'
space_group_IT_number      1  
 
loop_ 
    _atom_site_label 
    _atom_site_occupancy 
    _atom_site_fract_x 
    _atom_site_fract_y 
    _atom_site_fract_z 
    _atom_site_adp_type 
    _atom_site_U_iso_or_equiv 
    _atom_site_type_symbol 
   _atom_site_charge
O 1.0  		0.023478080750207967 		0.40840500143708575  0.19011406504732206 		Uiso   ? 		O 		-0.62091
O 1.0  		0.5235233328574603 		0.9082609141834493  0.19011406504732206 		Uiso   ? 		O 		-0.62091
O 1.0  		0.2735953764842786 		0.15828770570301515  0.19011406504732206 		Uiso   ? 		O 		-0.62091
O 1.0  		0.773640628591531 		0.6583329578102676  0.19011406504732206 		Uiso   ? 		O 		-0.62091
O 1.0  		0.773640628591531 		0.15828770570301515  0.19011406504732206 		Uiso   ? 		O 		-0.62091
O 1.0  		0.5235233328574604 		0.40840500143708575  0.19011406504732206 		Uiso   ? 		O 		-0.62091
O 1.0  		0.27359537648427856 		0.6583329578102676  0.19011406504732206 		Uiso   ? 		O 		-0.62091
O 1.0  		0.023478080750207936 		0.9082609141834493  0.19011406504732206 		Uiso   ? 		O 		-0.62091
O 1.0  		0.023478080750207967 		0.40632226846730923  0.5130402093389705 		Uiso   ? 		O 		-0.62119
O 1.0  		0.5235233328574604 		0.9063675205745617  0.5130402093389705 		Uiso   ? 		O 		-0.62119
O 1.0  		0.2734060371233898 		0.1563943120941274  0.5130402093389705 		Uiso   ? 		O 		-0.62119
O 1.0  		0.7734512892306422 		0.6562502248404911  0.5130402093389705 		Uiso   ? 		O 		-0.62119
O 1.0  		0.7734512892306422 		0.1563943120941274  0.5130402093389705 		Uiso   ? 		O 		-0.62119
O 1.0  		0.5235233328574604 		0.40632226846730923  0.5130402093389705 		Uiso   ? 		O 		-0.62119
O 1.0  		0.27340603712338973 		0.6562502248404911  0.5130402093389705 		Uiso   ? 		O 		-0.62119
O 1.0  		0.023478080750207936 		0.9063675205745617  0.5130402093389705 		Uiso   ? 		O 		-0.62119
O 1.0  		0.021584687141320225 		0.40442887485842155  0.8372159296450147 		Uiso   ? 		O 		-0.94014
O 1.0  		0.5216299392485727 		0.904474126965674  0.8372159296450147 		Uiso   ? 		O 		-0.94014
O 1.0  		0.27151264351450205 		0.15450091848523967  0.8372159296450147 		Uiso   ? 		O 		-0.94014
O 1.0  		0.7715578956217546 		0.6545461705924921  0.8372159296450147 		Uiso   ? 		O 		-0.94014
O 1.0  		0.7715578956217546 		0.15450091848523967  0.8372159296450147 		Uiso   ? 		O 		-0.94014
O 1.0  		0.5216299392485727 		0.40442887485842155  0.8372159296450147 		Uiso   ? 		O 		-0.94014
O 1.0  		0.271512643514502 		0.6545461705924921  0.8372159296450147 		Uiso   ? 		O 		-0.94014
O 1.0  		0.021584687141320193 		0.904474126965674  0.8372159296450147 		Uiso   ? 		O 		-0.94014
O 1.0  		0.8455895857292652 		0.26924057118383676  0.18868597817372715 		Uiso   ? 		O 		-0.63724
O 1.0  		0.3455443336220127 		0.7692858232910892  0.18868597817372715 		Uiso   ? 		O 		-0.63724
O 1.0  		0.09561637724883093 		0.01931261481065496  0.18868597817372715 		Uiso   ? 		O 		-0.63724
O 1.0  		0.5956616293560834 		0.5191685275570186  0.18868597817372715 		Uiso   ? 		O 		-0.63724
O 1.0  		0.5956616293560834 		0.01931261481065496  0.18868597817372715 		Uiso   ? 		O 		-0.63724
O 1.0  		0.34554433362201276 		0.26924057118383676  0.18868597817372715 		Uiso   ? 		O 		-0.63724
O 1.0  		0.0956163772488309 		0.5191685275570186  0.18868597817372715 		Uiso   ? 		O 		-0.63724
O 1.0  		0.8455895857292652 		0.7692858232910892  0.18868597817372715 		Uiso   ? 		O 		-0.63724
O 1.0  		0.8455895857292652 		0.26924057118383676  0.511790633324575 		Uiso   ? 		O 		-0.63961
O 1.0  		0.3455443336220127 		0.7692858232910892  0.511790633324575 		Uiso   ? 		O 		-0.63961
O 1.0  		0.09561637724883093 		0.01931261481065496  0.511790633324575 		Uiso   ? 		O 		-0.63961
O 1.0  		0.5956616293560834 		0.5191685275570186  0.511790633324575 		Uiso   ? 		O 		-0.63961
O 1.0  		0.5956616293560834 		0.01931261481065496  0.511790633324575 		Uiso   ? 		O 		-0.63961
O 1.0  		0.34554433362201276 		0.26924057118383676  0.511790633324575 		Uiso   ? 		O 		-0.63961
O 1.0  		0.0956163772488309 		0.5191685275570186  0.511790633324575 		Uiso   ? 		O 		-0.63961
O 1.0  		0.8455895857292652 		0.7692858232910892  0.511790633324575 		Uiso   ? 		O 		-0.63961
O 1.0  		0.8493763729470406 		0.2694299105447256  0.835966353630619 		Uiso   ? 		O 		-0.92410
O 1.0  		0.3493311208397882 		0.769475162651978  0.835966353630619 		Uiso   ? 		O 		-0.92410
O 1.0  		0.09940316446660641 		0.019501954171543733  0.835966353630619 		Uiso   ? 		O 		-0.92410
O 1.0  		0.5994484165738588 		0.5195472062787962  0.835966353630619 		Uiso   ? 		O 		-0.92410
O 1.0  		0.5994484165738588 		0.019501954171543733  0.835966353630619 		Uiso   ? 		O 		-0.92410
O 1.0  		0.34933112083978823 		0.2694299105447256  0.835966353630619 		Uiso   ? 		O 		-0.92410
O 1.0  		0.09940316446660638 		0.5195472062787962  0.835966353630619 		Uiso   ? 		O 		-0.92410
O 1.0  		0.8493763729470406 		0.769475162651978  0.835966353630619 		Uiso   ? 		O 		-0.92410
O 1.0  		0.9792631745167396 		0.09466968044438706  0.1342401661179213 		Uiso   ? 		O 		-0.92223
O 1.0  		0.47921792240948724 		0.5947149325516395  0.1342401661179213 		Uiso   ? 		O 		-0.92223
O 1.0  		0.22928996603630541 		0.8446428889248214  0.1342401661179213 		Uiso   ? 		O 		-0.92223
O 1.0  		0.7293352181435578 		0.3445976368175689  0.1342401661179213 		Uiso   ? 		O 		-0.92223
O 1.0  		0.7293352181435578 		0.8446428889248214  0.1342401661179213 		Uiso   ? 		O 		-0.92223
O 1.0  		0.4792179224094873 		0.09466968044438706  0.1342401661179213 		Uiso   ? 		O 		-0.92223
O 1.0  		0.22928996603630544 		0.3445976368175689  0.1342401661179213 		Uiso   ? 		O 		-0.92223
O 1.0  		0.9792631745167396 		0.5947149325516395  0.1342401661179213 		Uiso   ? 		O 		-0.92223
O 1.0  		0.9813459074865162 		0.09637373469238603  0.46109354931195584 		Uiso   ? 		O 		-0.65313
O 1.0  		0.4813006553792637 		0.5964189867996385  0.46109354931195584 		Uiso   ? 		O 		-0.65313
O 1.0  		0.23118335964519315 		0.8463469431728202  0.46109354931195584 		Uiso   ? 		O 		-0.65313
O 1.0  		0.7312286117524457 		0.34630169106556785  0.46109354931195584 		Uiso   ? 		O 		-0.65313
O 1.0  		0.7312286117524457 		0.8463469431728202  0.46109354931195584 		Uiso   ? 		O 		-0.65313
O 1.0  		0.48130065537926375 		0.09637373469238603  0.46109354931195584 		Uiso   ? 		O 		-0.65313
O 1.0  		0.23118335964519318 		0.34630169106556785  0.46109354931195584 		Uiso   ? 		O 		-0.65313
O 1.0  		0.9813459074865162 		0.5964189867996385  0.46109354931195584 		Uiso   ? 		O 		-0.65313
O 1.0  		0.9822926042909601 		0.09750977085771867  0.7865188456323953 		Uiso   ? 		O 		-0.65640
O 1.0  		0.4822473521837076 		0.5975550229649711  0.7865188456323953 		Uiso   ? 		O 		-0.65640
O 1.0  		0.2323193958105258 		0.847482979338153  0.7865188456323953 		Uiso   ? 		O 		-0.65640
O 1.0  		0.7323646479177782 		0.3474377272309005  0.7865188456323953 		Uiso   ? 		O 		-0.65640
O 1.0  		0.7323646479177782 		0.847482979338153  0.7865188456323953 		Uiso   ? 		O 		-0.65640
O 1.0  		0.4822473521837077 		0.09750977085771867  0.7865188456323953 		Uiso   ? 		O 		-0.65640
O 1.0  		0.23231939581052582 		0.3474377272309005  0.7865188456323953 		Uiso   ? 		O 		-0.65640
O 1.0  		0.9822926042909601 		0.5975550229649711  0.7865188456323953 		Uiso   ? 		O 		-0.65640
O 1.0  		0.1543115791243509 		0.2245564820140861  0.13566825299151622 		Uiso   ? 		O 		-0.83141
O 1.0  		0.6543568312316034 		0.7246017341213385  0.13566825299151622 		Uiso   ? 		O 		-0.83141
O 1.0  		0.4044288748584215 		0.9745296904945204  0.13566825299151622 		Uiso   ? 		O 		-0.83141
O 1.0  		0.9042847876047851 		0.4744844383872679  0.13566825299151622 		Uiso   ? 		O 		-0.83141
O 1.0  		0.904284787604785 		0.9745296904945204  0.13566825299151622 		Uiso   ? 		O 		-0.83141
O 1.0  		0.6543568312316034 		0.2245564820140861  0.13566825299151622 		Uiso   ? 		O 		-0.83141
O 1.0  		0.4044288748584215 		0.4744844383872679  0.13566825299151622 		Uiso   ? 		O 		-0.83141
O 1.0  		0.15431157912435084 		0.7246017341213385  0.13566825299151622 		Uiso   ? 		O 		-0.83141
O 1.0  		0.15601563337234983 		0.22682855434475138  0.4594869515791615 		Uiso   ? 		O 		-0.62568
O 1.0  		0.6560608854796023 		0.7268738064520038  0.4594869515791615 		Uiso   ? 		O 		-0.62568
O 1.0  		0.4061329291064204 		0.9768017628251856  0.4594869515791615 		Uiso   ? 		O 		-0.62568
O 1.0  		0.9061781812136728 		0.4767565107179332  0.4594869515791615 		Uiso   ? 		O 		-0.62568
O 1.0  		0.9061781812136727 		0.9768017628251856  0.4594869515791615 		Uiso   ? 		O 		-0.62568
O 1.0  		0.6560608854796023 		0.22682855434475138  0.4594869515791615 		Uiso   ? 		O 		-0.62568
O 1.0  		0.4061329291064204 		0.4767565107179332  0.4594869515791615 		Uiso   ? 		O 		-0.62568
O 1.0  		0.1560156333723498 		0.7268738064520038  0.4594869515791615 		Uiso   ? 		O 		-0.62568
O 1.0  		0.1554476152896835 		0.22966864475808302  0.7840196936036044 		Uiso   ? 		O 		-0.63853
O 1.0  		0.655492867396936 		0.7295245575044467  0.7840196936036044 		Uiso   ? 		O 		-0.63853
O 1.0  		0.4053755716628653 		0.9796418532385174  0.7840196936036044 		Uiso   ? 		O 		-0.63853
O 1.0  		0.9054208237701178 		0.4795966011312648  0.7840196936036044 		Uiso   ? 		O 		-0.63853
O 1.0  		0.9054208237701177 		0.9796418532385174  0.7840196936036044 		Uiso   ? 		O 		-0.63853
O 1.0  		0.655492867396936 		0.22966864475808302  0.7840196936036044 		Uiso   ? 		O 		-0.63853
O 1.0  		0.4053755716628653 		0.4795966011312648  0.7840196936036044 		Uiso   ? 		O 		-0.63853
O 1.0  		0.15544761528968348 		0.7295245575044467  0.7840196936036044 		Uiso   ? 		O 		-0.63853
O 1.0  		0.06456472206307196 		0.406511607828198  0.16137381671622456 		Uiso   ? 		O 		-0.64773
O 1.0  		0.5646099741703244 		0.9065568599354505  0.16137381671622456 		Uiso   ? 		O 		-0.64773
O 1.0  		0.3144926784362538 		0.1563943120941274  0.16137381671622456 		Uiso   ? 		O 		-0.64773
O 1.0  		0.8145379305435062 		0.6564395642013798  0.16137381671622456 		Uiso   ? 		O 		-0.64773
O 1.0  		0.8145379305435062 		0.1563943120941274  0.16137381671622456 		Uiso   ? 		O 		-0.64773
O 1.0  		0.5646099741703244 		0.406511607828198  0.16137381671622456 		Uiso   ? 		O 		-0.64773
O 1.0  		0.3144926784362537 		0.6564395642013798  0.16137381671622456 		Uiso   ? 		O 		-0.64773
O 1.0  		0.06456472206307193 		0.9065568599354505  0.16137381671622456 		Uiso   ? 		O 		-0.64773
O 1.0  		0.0626713284541842 		0.40613292910642046  0.4818008089790819 		Uiso   ? 		O 		-0.64306
O 1.0  		0.5627165805614367 		0.9061781812136728  0.4818008089790819 		Uiso   ? 		O 		-0.64306
O 1.0  		0.31259928482736604 		0.15620497273323863  0.4818008089790819 		Uiso   ? 		O 		-0.64306
O 1.0  		0.8126445369346185 		0.6562502248404911  0.4818008089790819 		Uiso   ? 		O 		-0.64306
O 1.0  		0.8126445369346185 		0.15620497273323863  0.4818008089790819 		Uiso   ? 		O 		-0.64306
O 1.0  		0.5627165805614367 		0.40613292910642046  0.4818008089790819 		Uiso   ? 		O 		-0.64306
O 1.0  		0.312599284827366 		0.6562502248404911  0.4818008089790819 		Uiso   ? 		O 		-0.64306
O 1.0  		0.06267132845418417 		0.9061781812136728  0.4818008089790819 		Uiso   ? 		O 		-0.64306
O 1.0  		0.062481989093295436 		0.40442887485842155  0.808475681313917 		Uiso   ? 		O 		-0.65264
O 1.0  		0.5625272412005479 		0.904474126965674  0.808475681313917 		Uiso   ? 		O 		-0.65264
O 1.0  		0.31259928482736604 		0.15450091848523967  0.808475681313917 		Uiso   ? 		O 		-0.65264
O 1.0  		0.8124551975737297 		0.6545461705924921  0.808475681313917 		Uiso   ? 		O 		-0.65264
O 1.0  		0.8124551975737297 		0.15450091848523967  0.808475681313917 		Uiso   ? 		O 		-0.65264
O 1.0  		0.5625272412005479 		0.40442887485842155  0.808475681313917 		Uiso   ? 		O 		-0.65264
O 1.0  		0.312599284827366 		0.6545461705924921  0.808475681313917 		Uiso   ? 		O 		-0.65264
O 1.0  		0.06248198909329541 		0.904474126965674  0.808475681313917 		Uiso   ? 		O 		-0.65264
O 1.0  		0.8446428889248214 		0.3135459816318099  0.16530105561861055 		Uiso   ? 		O 		-0.61572
O 1.0  		0.3447869761784576 		0.8135912337390623  0.16530105561861055 		Uiso   ? 		O 		-0.61572
O 1.0  		0.09466968044438706 		0.0636180252586281  0.16530105561861055 		Uiso   ? 		O 		-0.61572
O 1.0  		0.5947149325516395 		0.5634739380049918  0.16530105561861055 		Uiso   ? 		O 		-0.61572
O 1.0  		0.5947149325516395 		0.0636180252586281  0.16530105561861055 		Uiso   ? 		O 		-0.61572
O 1.0  		0.34478697617845766 		0.3135459816318099  0.16530105561861055 		Uiso   ? 		O 		-0.61572
O 1.0  		0.09466968044438703 		0.5634739380049918  0.16530105561861055 		Uiso   ? 		O 		-0.61572
O 1.0  		0.8446428889248214 		0.8135912337390623  0.16530105561861055 		Uiso   ? 		O 		-0.61572
O 1.0  		0.8438855314812662 		0.3129779635491436  0.48840571076945843 		Uiso   ? 		O 		-0.61961
O 1.0  		0.34384027937401374 		0.813023215656396  0.48840571076945843 		Uiso   ? 		O 		-0.61961
O 1.0  		0.09391232300083197 		0.06305000717596178  0.48840571076945843 		Uiso   ? 		O 		-0.61961
O 1.0  		0.5939575751080844 		0.5630952592832142  0.48840571076945843 		Uiso   ? 		O 		-0.61961
O 1.0  		0.5939575751080844 		0.06305000717596178  0.48840571076945843 		Uiso   ? 		O 		-0.61961
O 1.0  		0.3438402793740138 		0.3129779635491436  0.48840571076945843 		Uiso   ? 		O 		-0.61961
O 1.0  		0.09391232300083194 		0.5630952592832142  0.48840571076945843 		Uiso   ? 		O 		-0.61961
O 1.0  		0.8438855314812662 		0.813023215656396  0.48840571076945843 		Uiso   ? 		O 		-0.61961
O 1.0  		0.8471043006163754 		0.31240994546647727  0.8124029202163031 		Uiso   ? 		O 		-0.64157
O 1.0  		0.3470590485091229 		0.8124551975737297  0.8124029202163031 		Uiso   ? 		O 		-0.64157
O 1.0  		0.09713109213594112 		0.06248198909329546  0.8124029202163031 		Uiso   ? 		O 		-0.64157
O 1.0  		0.5971763442431935 		0.5625272412005479  0.8124029202163031 		Uiso   ? 		O 		-0.64157
O 1.0  		0.5971763442431935 		0.06248198909329546  0.8124029202163031 		Uiso   ? 		O 		-0.64157
O 1.0  		0.34705904850912295 		0.31240994546647727  0.8124029202163031 		Uiso   ? 		O 		-0.64157
O 1.0  		0.0971310921359411 		0.5625272412005479  0.8124029202163031 		Uiso   ? 		O 		-0.64157
O 1.0  		0.8471043006163754 		0.8124551975737297  0.8124029202163031 		Uiso   ? 		O 		-0.64157
O 1.0  		0.8007161571986258 		0.20107840126387813  0.18243809810174944 		Uiso   ? 		O 		-1.00439
O 1.0  		0.300860244452262 		0.7011236533711305  0.18243809810174944 		Uiso   ? 		O 		-1.00439
O 1.0  		0.05074294871819141 		0.9510516097443124  0.18243809810174944 		Uiso   ? 		O 		-1.00439
O 1.0  		0.5507882008254439 		0.45100635763706  0.18243809810174944 		Uiso   ? 		O 		-1.00439
O 1.0  		0.5507882008254438 		0.9510516097443124  0.18243809810174944 		Uiso   ? 		O 		-1.00439
O 1.0  		0.30086024445226206 		0.20107840126387813  0.18243809810174944 		Uiso   ? 		O 		-1.00439
O 1.0  		0.05074294871819144 		0.45100635763706  0.18243809810174944 		Uiso   ? 		O 		-1.00439
O 1.0  		0.8007161571986258 		0.7011236533711305  0.18243809810174944 		Uiso   ? 		O 		-1.00439
O 1.0  		0.7997694603941818 		0.200321043820323  0.5076848835629896 		Uiso   ? 		O 		-0.99942
O 1.0  		0.29972420828692936 		0.7003662959275754  0.5076848835629896 		Uiso   ? 		O 		-0.99942
O 1.0  		0.049796251913747536 		0.9502942523007573  0.5076848835629896 		Uiso   ? 		O 		-0.99942
O 1.0  		0.5496521646601112 		0.4502490001935049  0.5076848835629896 		Uiso   ? 		O 		-0.99942
O 1.0  		0.5496521646601111 		0.9502942523007573  0.5076848835629896 		Uiso   ? 		O 		-0.99942
O 1.0  		0.2997242082869294 		0.200321043820323  0.5076848835629896 		Uiso   ? 		O 		-0.99942
O 1.0  		0.04979625191374756 		0.4502490001935049  0.5076848835629896 		Uiso   ? 		O 		-0.99942
O 1.0  		0.7997694603941818 		0.7003662959275754  0.5076848835629896 		Uiso   ? 		O 		-0.99942
O 1.0  		0.0480921976657486 		0.4502490001935049  0.8334672016018279 		Uiso   ? 		O 		-1.00713
O 1.0  		0.5481374497730009 		0.9502942523007573  0.8334672016018279 		Uiso   ? 		O 		-1.00713
O 1.0  		0.29802015403893045 		0.200321043820323  0.8334672016018279 		Uiso   ? 		O 		-1.00713
O 1.0  		0.7980654061461828 		0.7003662959275754  0.8334672016018279 		Uiso   ? 		O 		-1.00713
O 1.0  		0.7980654061461828 		0.200321043820323  0.8334672016018279 		Uiso   ? 		O 		-1.00713
O 1.0  		0.548137449773001 		0.4502490001935049  0.8334672016018279 		Uiso   ? 		O 		-1.00713
O 1.0  		0.2980201540389304 		0.7003662959275754  0.8334672016018279 		Uiso   ? 		O 		-1.00713
O 1.0  		0.04809219766574857 		0.9502942523007573  0.8334672016018279 		Uiso   ? 		O 		-1.00713
O 1.0  		0.999143807410061 		0.44210740767528756  0.15994572984262964 		Uiso   ? 		O 		-1.00575
O 1.0  		0.4992878946636973 		0.94215265978254  0.15994572984262964 		Uiso   ? 		O 		-1.00575
O 1.0  		0.24917059892962676 		0.19199011194121696  0.15994572984262964 		Uiso   ? 		O 		-1.00575
O 1.0  		0.7492158510368792 		0.6920353640484693  0.15994572984262964 		Uiso   ? 		O 		-1.00575
O 1.0  		0.7492158510368792 		0.19199011194121696  0.15994572984262964 		Uiso   ? 		O 		-1.00575
O 1.0  		0.49928789466369733 		0.44210740767528756  0.15994572984262964 		Uiso   ? 		O 		-1.00575
O 1.0  		0.2491705989296267 		0.6920353640484693  0.15994572984262964 		Uiso   ? 		O 		-1.00575
O 1.0  		0.9991438074100609 		0.94215265978254  0.15994572984262964 		Uiso   ? 		O 		-1.00575
O 1.0  		0.999143807410061 		0.4426754257579539  0.48572804788146795 		Uiso   ? 		O 		-0.99049
O 1.0  		0.4992878946636973 		0.9425313385043175  0.48572804788146795 		Uiso   ? 		O 		-0.99049
O 1.0  		0.24917059892962676 		0.19255813002388325  0.48572804788146795 		Uiso   ? 		O 		-0.99049
O 1.0  		0.7492158510368792 		0.6926033821311357  0.48572804788146795 		Uiso   ? 		O 		-0.99049
O 1.0  		0.7492158510368792 		0.19255813002388325  0.48572804788146795 		Uiso   ? 		O 		-0.99049
O 1.0  		0.49928789466369733 		0.4426754257579539  0.48572804788146795 		Uiso   ? 		O 		-0.99049
O 1.0  		0.2491705989296267 		0.6926033821311357  0.48572804788146795 		Uiso   ? 		O 		-0.99049
O 1.0  		0.9991438074100609 		0.9425313385043175  0.48572804788146795 		Uiso   ? 		O 		-0.99049
O 1.0  		0.9980077712447283 		0.44135005023173246  0.8113318550611068 		Uiso   ? 		O 		-0.98608
O 1.0  		0.49796251913747586 		0.9413953023389849  0.8113318550611068 		Uiso   ? 		O 		-0.98608
O 1.0  		0.2480345627642941 		0.1914220938585506  0.8113318550611068 		Uiso   ? 		O 		-0.98608
O 1.0  		0.7480798148715465 		0.6914673459658031  0.8113318550611068 		Uiso   ? 		O 		-0.98608
O 1.0  		0.7480798148715465 		0.1914220938585506  0.8113318550611068 		Uiso   ? 		O 		-0.98608
O 1.0  		0.4979625191374759 		0.44135005023173246  0.8113318550611068 		Uiso   ? 		O 		-0.98608
O 1.0  		0.24803456276429403 		0.6914673459658031  0.8113318550611068 		Uiso   ? 		O 		-0.98608
O 1.0  		0.9980077712447282 		0.9413953023389849  0.8113318550611068 		Uiso   ? 		O 		-0.98608
O 1.0  		0.024046098832874303 		0.15696233017679373  0.3514878817635466 		Uiso   ? 		O 		-0.61533
O 1.0  		0.523902011579238 		0.6570075822840462  0.3514878817635466 		Uiso   ? 		O 		-0.61533
O 1.0  		0.2739740552060561 		0.9071248780181168  0.3514878817635466 		Uiso   ? 		O 		-0.61533
O 1.0  		0.7740193073133086 		0.40707962591086433  0.3514878817635466 		Uiso   ? 		O 		-0.61533
O 1.0  		0.7740193073133085 		0.9071248780181168  0.3514878817635466 		Uiso   ? 		O 		-0.61533
O 1.0  		0.523902011579238 		0.15696233017679373  0.3514878817635466 		Uiso   ? 		O 		-0.61533
O 1.0  		0.27397405520605617 		0.40707962591086433  0.3514878817635466 		Uiso   ? 		O 		-0.61533
O 1.0  		0.02404609883287427 		0.6570075822840462  0.3514878817635466 		Uiso   ? 		O 		-0.61533
O 1.0  		0.02309940202843043 		0.15620497273323863  0.6747710477735938 		Uiso   ? 		O 		-0.62379
O 1.0  		0.5231446541356829 		0.6562502248404911  0.6747710477735938 		Uiso   ? 		O 		-0.62379
O 1.0  		0.273216697762501 		0.9061781812136728  0.6747710477735938 		Uiso   ? 		O 		-0.62379
O 1.0  		0.7730726105088648 		0.40632226846730923  0.6747710477735938 		Uiso   ? 		O 		-0.62379
O 1.0  		0.7730726105088648 		0.9061781812136728  0.6747710477735938 		Uiso   ? 		O 		-0.62379
O 1.0  		0.5231446541356829 		0.15620497273323863  0.6747710477735938 		Uiso   ? 		O 		-0.62379
O 1.0  		0.27321669776250107 		0.40632226846730923  0.6747710477735938 		Uiso   ? 		O 		-0.62379
O 1.0  		0.0230994020284304 		0.6562502248404911  0.6747710477735938 		Uiso   ? 		O 		-0.62379
O 1.0  		0.09561637724883092 		0.2694299105447256  0.3502383057491511 		Uiso   ? 		O 		-0.64460
O 1.0  		0.5956616293560834 		0.7692858232910892  0.3502383057491511 		Uiso   ? 		O 		-0.64460
O 1.0  		0.34554433362201276 		0.01931261481065496  0.3502383057491511 		Uiso   ? 		O 		-0.64460
O 1.0  		0.8455895857292652 		0.5193578669179074  0.3502383057491511 		Uiso   ? 		O 		-0.64460
O 1.0  		0.8455895857292652 		0.01931261481065496  0.3502383057491511 		Uiso   ? 		O 		-0.64460
O 1.0  		0.5956616293560834 		0.2694299105447256  0.3502383057491511 		Uiso   ? 		O 		-0.64460
O 1.0  		0.3455443336220127 		0.5193578669179074  0.3502383057491511 		Uiso   ? 		O 		-0.64460
O 1.0  		0.09561637724883089 		0.7692858232910892  0.3502383057491511 		Uiso   ? 		O 		-0.64460
O 1.0  		0.09485901980527582 		0.2688618924620592  0.6744140260551951 		Uiso   ? 		O 		-0.64660
O 1.0  		0.5947149325516395 		0.7689071445693116  0.6744140260551951 		Uiso   ? 		O 		-0.64660
O 1.0  		0.34478697617845766 		0.018744596727988637  0.6744140260551951 		Uiso   ? 		O 		-0.64660
O 1.0  		0.84483222828571 		0.5187898488352412  0.6744140260551951 		Uiso   ? 		O 		-0.64660
O 1.0  		0.84483222828571 		0.018744596727988637  0.6744140260551951 		Uiso   ? 		O 		-0.64660
O 1.0  		0.5947149325516395 		0.2688618924620592  0.6744140260551951 		Uiso   ? 		O 		-0.64660
O 1.0  		0.3447869761784576 		0.5187898488352412  0.6744140260551951 		Uiso   ? 		O 		-0.64660
O 1.0  		0.0948590198052758 		0.7689071445693116  0.6744140260551951 		Uiso   ? 		O 		-0.64660
O 1.0  		0.9813459074865162 		0.3464910304264566  0.29954122173653186 		Uiso   ? 		O 		-0.65538
O 1.0  		0.4813006553792637 		0.846536282533709  0.29954122173653186 		Uiso   ? 		O 		-0.65538
O 1.0  		0.2311833596451932 		0.0965630740532748  0.29954122173653186 		Uiso   ? 		O 		-0.65538
O 1.0  		0.7312286117524457 		0.5964189867996385  0.29954122173653186 		Uiso   ? 		O 		-0.65538
O 1.0  		0.7312286117524457 		0.0965630740532748  0.29954122173653186 		Uiso   ? 		O 		-0.65538
O 1.0  		0.48130065537926375 		0.3464910304264566  0.29954122173653186 		Uiso   ? 		O 		-0.65538
O 1.0  		0.23118335964519318 		0.5964189867996385  0.29954122173653186 		Uiso   ? 		O 		-0.65538
O 1.0  		0.9813459074865162 		0.846536282533709  0.29954122173653186 		Uiso   ? 		O 		-0.65538
O 1.0  		0.9813459074865162 		0.3466803697873454  0.6237169420425759 		Uiso   ? 		O 		-0.65587
O 1.0  		0.4813006553792637 		0.8467256218945979  0.6237169420425759 		Uiso   ? 		O 		-0.65587
O 1.0  		0.2311833596451932 		0.09675241341416357  0.6237169420425759 		Uiso   ? 		O 		-0.65587
O 1.0  		0.7312286117524457 		0.596797665521416  0.6237169420425759 		Uiso   ? 		O 		-0.65587
O 1.0  		0.7312286117524457 		0.09675241341416357  0.6237169420425759 		Uiso   ? 		O 		-0.65587
O 1.0  		0.48130065537926375 		0.3466803697873454  0.6237169420425759 		Uiso   ? 		O 		-0.65587
O 1.0  		0.23118335964519318 		0.596797665521416  0.6237169420425759 		Uiso   ? 		O 		-0.65587
O 1.0  		0.9813459074865162 		0.8467256218945979  0.6237169420425759 		Uiso   ? 		O 		-0.65587
O 1.0  		0.9071248780181168 		0.2260711969011963  0.29686355884854143 		Uiso   ? 		O 		-0.62182
O 1.0  		0.4070796259108643 		0.7259271096475599  0.29686355884854143 		Uiso   ? 		O 		-0.62182
O 1.0  		0.15715166953768245 		0.9760444053816306  0.29686355884854143 		Uiso   ? 		O 		-0.62182
O 1.0  		0.6570075822840462 		0.4759991532743781  0.29686355884854143 		Uiso   ? 		O 		-0.62182
O 1.0  		0.6570075822840461 		0.9760444053816306  0.29686355884854143 		Uiso   ? 		O 		-0.62182
O 1.0  		0.40707962591086433 		0.2260711969011963  0.29686355884854143 		Uiso   ? 		O 		-0.62182
O 1.0  		0.15715166953768248 		0.4759991532743781  0.29686355884854143 		Uiso   ? 		O 		-0.62182
O 1.0  		0.9071248780181168 		0.7259271096475599  0.29686355884854143 		Uiso   ? 		O 		-0.62182
O 1.0  		0.9061781812136728 		0.22663921498386264  0.6210392791545855 		Uiso   ? 		O 		-0.62788
O 1.0  		0.4061329291064204 		0.7266844670911151  0.6210392791545855 		Uiso   ? 		O 		-0.62788
O 1.0  		0.15620497273323858 		0.976612423464297  0.6210392791545855 		Uiso   ? 		O 		-0.62788
O 1.0  		0.6560608854796023 		0.4767565107179332  0.6210392791545855 		Uiso   ? 		O 		-0.62788
O 1.0  		0.6560608854796022 		0.976612423464297  0.6210392791545855 		Uiso   ? 		O 		-0.62788
O 1.0  		0.40613292910642046 		0.22663921498386264  0.6210392791545855 		Uiso   ? 		O 		-0.62788
O 1.0  		0.1562049727332386 		0.4767565107179332  0.6210392791545855 		Uiso   ? 		O 		-0.62788
O 1.0  		0.9061781812136728 		0.7266844670911151  0.6210392791545855 		Uiso   ? 		O 		-0.62788
O 1.0  		0.06267132845418422 		0.1563943120941274  0.320248481403658 		Uiso   ? 		O 		-0.64405
O 1.0  		0.5627165805614367 		0.6564395642013798  0.320248481403658 		Uiso   ? 		O 		-0.64405
O 1.0  		0.312599284827366 		0.9063675205745617  0.320248481403658 		Uiso   ? 		O 		-0.64405
O 1.0  		0.8126445369346185 		0.40632226846730923  0.320248481403658 		Uiso   ? 		O 		-0.64405
O 1.0  		0.8126445369346185 		0.9063675205745617  0.320248481403658 		Uiso   ? 		O 		-0.64405
O 1.0  		0.5627165805614367 		0.1563943120941274  0.320248481403658 		Uiso   ? 		O 		-0.64405
O 1.0  		0.31259928482736604 		0.40632226846730923  0.320248481403658 		Uiso   ? 		O 		-0.64405
O 1.0  		0.06267132845418419 		0.6564395642013798  0.320248481403658 		Uiso   ? 		O 		-0.64405
O 1.0  		0.06267132845418422 		0.15601563337234986  0.644424201709702 		Uiso   ? 		O 		-0.64285
O 1.0  		0.5627165805614367 		0.6560608854796023  0.644424201709702 		Uiso   ? 		O 		-0.64285
O 1.0  		0.312599284827366 		0.9061781812136728  0.644424201709702 		Uiso   ? 		O 		-0.64285
O 1.0  		0.8126445369346185 		0.40613292910642046  0.644424201709702 		Uiso   ? 		O 		-0.64285
O 1.0  		0.8126445369346185 		0.9061781812136728  0.644424201709702 		Uiso   ? 		O 		-0.64285
O 1.0  		0.5627165805614367 		0.15601563337234986  0.644424201709702 		Uiso   ? 		O 		-0.64285
O 1.0  		0.31259928482736604 		0.40613292910642046  0.644424201709702 		Uiso   ? 		O 		-0.64285
O 1.0  		0.06267132845418419 		0.6560608854796023  0.644424201709702 		Uiso   ? 		O 		-0.64285
O 1.0  		0.0942910017226095 		0.31335664227092114  0.32685338319403445 		Uiso   ? 		O 		-0.62061
O 1.0  		0.5943362538298619 		0.8132125550172848  0.32685338319403445 		Uiso   ? 		O 		-0.62061
O 1.0  		0.34421895809579134 		0.06323934653685055  0.32685338319403445 		Uiso   ? 		O 		-0.62061
O 1.0  		0.8442642102030437 		0.563284598644103  0.32685338319403445 		Uiso   ? 		O 		-0.62061
O 1.0  		0.8442642102030437 		0.06323934653685055  0.32685338319403445 		Uiso   ? 		O 		-0.62061
O 1.0  		0.5943362538298619 		0.31335664227092114  0.32685338319403445 		Uiso   ? 		O 		-0.62061
O 1.0  		0.3442189580957913 		0.563284598644103  0.32685338319403445 		Uiso   ? 		O 		-0.62061
O 1.0  		0.09429100172260946 		0.8132125550172848  0.32685338319403445 		Uiso   ? 		O 		-0.62061
O 1.0  		0.09372298363994318 		0.3127886241882548  0.6510291035000785 		Uiso   ? 		O 		-0.62300
O 1.0  		0.5937682357471956 		0.8128338762955073  0.6510291035000785 		Uiso   ? 		O 		-0.62300
O 1.0  		0.343650940013125 		0.06267132845418423  0.6510291035000785 		Uiso   ? 		O 		-0.62300
O 1.0  		0.8436961921203775 		0.5627165805614367  0.6510291035000785 		Uiso   ? 		O 		-0.62300
O 1.0  		0.8436961921203775 		0.06267132845418423  0.6510291035000785 		Uiso   ? 		O 		-0.62300
O 1.0  		0.5937682357471956 		0.3127886241882548  0.6510291035000785 		Uiso   ? 		O 		-0.62300
O 1.0  		0.34365094001312496 		0.5627165805614367  0.6510291035000785 		Uiso   ? 		O 		-0.62300
O 1.0  		0.09372298363994314 		0.8128338762955073  0.6510291035000785 		Uiso   ? 		O 		-0.62300
O 1.0  		0.04979625191374758 		0.200321043820323  0.34613255598756576 		Uiso   ? 		O 		-0.99542
O 1.0  		0.549841504021 		0.7003662959275754  0.34613255598756576 		Uiso   ? 		O 		-0.99542
O 1.0  		0.29972420828692936 		0.9502942523007573  0.34613255598756576 		Uiso   ? 		O 		-0.99542
O 1.0  		0.7997694603941818 		0.4502490001935049  0.34613255598756576 		Uiso   ? 		O 		-0.99542
O 1.0  		0.7997694603941817 		0.9502942523007573  0.34613255598756576 		Uiso   ? 		O 		-0.99542
O 1.0  		0.549841504021 		0.200321043820323  0.34613255598756576 		Uiso   ? 		O 		-0.99542
O 1.0  		0.2997242082869294 		0.4502490001935049  0.34613255598756576 		Uiso   ? 		O 		-0.99542
O 1.0  		0.04979625191374755 		0.7003662959275754  0.34613255598756576 		Uiso   ? 		O 		-0.99542
O 1.0  		0.04979625191374758 		0.200321043820323  0.6701297654344104 		Uiso   ? 		O 		-0.99729
O 1.0  		0.549841504021 		0.7003662959275754  0.6701297654344104 		Uiso   ? 		O 		-0.99729
O 1.0  		0.29972420828692936 		0.9502942523007573  0.6701297654344104 		Uiso   ? 		O 		-0.99729
O 1.0  		0.7997694603941818 		0.4502490001935049  0.6701297654344104 		Uiso   ? 		O 		-0.99729
O 1.0  		0.7997694603941817 		0.9502942523007573  0.6701297654344104 		Uiso   ? 		O 		-0.99729
O 1.0  		0.549841504021 		0.200321043820323  0.6701297654344104 		Uiso   ? 		O 		-0.99729
O 1.0  		0.2997242082869294 		0.4502490001935049  0.6701297654344104 		Uiso   ? 		O 		-0.99729
O 1.0  		0.04979625191374755 		0.7003662959275754  0.6701297654344104 		Uiso   ? 		O 		-0.99729
O 1.0  		0.04771351894397106 		0.2978308146780417  0.3454185125507683 		Uiso   ? 		O 		-0.93429
O 1.0  		0.5475694316903347 		0.7976867274244054  0.3454185125507683 		Uiso   ? 		O 		-0.93429
O 1.0  		0.2976414753171529 		0.04771351894397108  0.3454185125507683 		Uiso   ? 		O 		-0.93429
O 1.0  		0.7976867274244054 		0.5477587710512235  0.3454185125507683 		Uiso   ? 		O 		-0.93429
O 1.0  		0.7976867274244054 		0.04771351894397108  0.3454185125507683 		Uiso   ? 		O 		-0.93429
O 1.0  		0.5475694316903347 		0.2978308146780417  0.3454185125507683 		Uiso   ? 		O 		-0.93429
O 1.0  		0.29764147531715285 		0.5477587710512235  0.3454185125507683 		Uiso   ? 		O 		-0.93429
O 1.0  		0.04771351894397103 		0.7976867274244054  0.3454185125507683 		Uiso   ? 		O 		-0.93429
O 1.0  		0.04695616150041596 		0.2968841178735978  0.6692372111384136 		Uiso   ? 		O 		-0.93405
O 1.0  		0.5470014136076684 		0.7967400306199615  0.6692372111384136 		Uiso   ? 		O 		-0.93405
O 1.0  		0.2970734572344866 		0.04676682213952721  0.6692372111384136 		Uiso   ? 		O 		-0.93405
O 1.0  		0.7969293699808502 		0.5468120742467796  0.6692372111384136 		Uiso   ? 		O 		-0.93405
O 1.0  		0.7969293699808502 		0.04676682213952721  0.6692372111384136 		Uiso   ? 		O 		-0.93405
O 1.0  		0.5470014136076684 		0.2968841178735978  0.6692372111384136 		Uiso   ? 		O 		-0.93405
O 1.0  		0.2970734572344865 		0.5468120742467796  0.6692372111384136 		Uiso   ? 		O 		-0.93405
O 1.0  		0.046956161500415934 		0.7967400306199615  0.6692372111384136 		Uiso   ? 		O 		-0.93405
O 1.0  		0.9995224861318386 		0.1931261481065496  0.324175720306044 		Uiso   ? 		O 		-0.98994
O 1.0  		0.49966657338547477 		0.6931714002138021  0.324175720306044 		Uiso   ? 		O 		-0.98994
O 1.0  		0.24954927765140425 		0.9430993565869839  0.324175720306044 		Uiso   ? 		O 		-0.98994
O 1.0  		0.7495945297586567 		0.44324344384062025  0.324175720306044 		Uiso   ? 		O 		-0.98994
O 1.0  		0.7495945297586566 		0.9430993565869839  0.324175720306044 		Uiso   ? 		O 		-0.98994
O 1.0  		0.4996665733854748 		0.1931261481065496  0.324175720306044 		Uiso   ? 		O 		-0.98994
O 1.0  		0.24954927765140428 		0.44324344384062025  0.324175720306044 		Uiso   ? 		O 		-0.98994
O 1.0  		0.9995224861318386 		0.6931714002138021  0.324175720306044 		Uiso   ? 		O 		-0.98994
O 1.0  		0.9993331467709496 		0.19274746938477205  0.6474588863160912 		Uiso   ? 		O 		-0.99159
O 1.0  		0.4992878946636973 		0.6926033821311357  0.6474588863160912 		Uiso   ? 		O 		-0.99159
O 1.0  		0.24935993829051545 		0.9427206778652063  0.6474588863160912 		Uiso   ? 		O 		-0.99159
O 1.0  		0.749405190397768 		0.4426754257579539  0.6474588863160912 		Uiso   ? 		O 		-0.99159
O 1.0  		0.7494051903977679 		0.9427206778652063  0.6474588863160912 		Uiso   ? 		O 		-0.99159
O 1.0  		0.49928789466369733 		0.19274746938477205  0.6474588863160912 		Uiso   ? 		O 		-0.99159
O 1.0  		0.24935993829051548 		0.4426754257579539  0.6474588863160912 		Uiso   ? 		O 		-0.99159
O 1.0  		0.9993331467709496 		0.6926033821311357  0.6474588863160912 		Uiso   ? 		O 		-0.99159
O 1.0  		0.977369780907852 		0.09258694747461053  0.18868597817372715 		Uiso   ? 		O 		-0.61058
O 1.0  		0.47732452880059945 		0.5924428602209743  0.18868597817372715 		Uiso   ? 		O 		-0.61058
O 1.0  		0.22739657242741768 		0.8425601559550449  0.18868597817372715 		Uiso   ? 		O 		-0.61058
O 1.0  		0.7274418245346702 		0.3425149038477924  0.18868597817372715 		Uiso   ? 		O 		-0.61058
O 1.0  		0.7274418245346702 		0.8425601559550449  0.18868597817372715 		Uiso   ? 		O 		-0.61058
O 1.0  		0.4773245288005995 		0.09258694747461053  0.18868597817372715 		Uiso   ? 		O 		-0.61058
O 1.0  		0.2273965724274177 		0.3425149038477924  0.18868597817372715 		Uiso   ? 		O 		-0.61058
O 1.0  		0.977369780907852 		0.5924428602209743  0.18868597817372715 		Uiso   ? 		O 		-0.61058
O 1.0  		0.976612423464297 		0.09353364427905442  0.5130402093389705 		Uiso   ? 		O 		-0.61922
O 1.0  		0.47656717135704435 		0.5935788963863068  0.5130402093389705 		Uiso   ? 		O 		-0.61922
O 1.0  		0.22663921498386258 		0.8435068527594887  0.5130402093389705 		Uiso   ? 		O 		-0.61922
O 1.0  		0.7264951277302263 		0.343650940013125  0.5130402093389705 		Uiso   ? 		O 		-0.61922
O 1.0  		0.7264951277302263 		0.8435068527594887  0.5130402093389705 		Uiso   ? 		O 		-0.61922
O 1.0  		0.4765671713570444 		0.09353364427905442  0.5130402093389705 		Uiso   ? 		O 		-0.61922
O 1.0  		0.2266392149838626 		0.343650940013125  0.5130402093389705 		Uiso   ? 		O 		-0.61922
O 1.0  		0.976612423464297 		0.5935788963863068  0.5130402093389705 		Uiso   ? 		O 		-0.61922
O 1.0  		0.9785058170731846 		0.09391232300083197  0.8384655056594101 		Uiso   ? 		O 		-0.93440
O 1.0  		0.47846056496593214 		0.5937682357471956  0.8384655056594101 		Uiso   ? 		O 		-0.93440
O 1.0  		0.22853260859275032 		0.8438855314812662  0.8384655056594101 		Uiso   ? 		O 		-0.93440
O 1.0  		0.728388521339114 		0.3438402793740138  0.8384655056594101 		Uiso   ? 		O 		-0.93440
O 1.0  		0.728388521339114 		0.8438855314812662  0.8384655056594101 		Uiso   ? 		O 		-0.93440
O 1.0  		0.4784605649659322 		0.09391232300083197  0.8384655056594101 		Uiso   ? 		O 		-0.93440
O 1.0  		0.22853260859275035 		0.3438402793740138  0.8384655056594101 		Uiso   ? 		O 		-0.93440
O 1.0  		0.9785058170731846 		0.5937682357471956  0.8384655056594101 		Uiso   ? 		O 		-0.93440
O 1.0  		0.1554476152896835 		0.2309940202843044  0.18868597817372715 		Uiso   ? 		O 		-0.65393
O 1.0  		0.655492867396936 		0.7310392723915569  0.18868597817372715 		Uiso   ? 		O 		-0.65393
O 1.0  		0.4053755716628653 		0.9809672287647387  0.18868597817372715 		Uiso   ? 		O 		-0.65393
O 1.0  		0.9054208237701178 		0.48092197665748626  0.18868597817372715 		Uiso   ? 		O 		-0.65393
O 1.0  		0.9054208237701177 		0.9809672287647387  0.18868597817372715 		Uiso   ? 		O 		-0.65393
O 1.0  		0.655492867396936 		0.2309940202843044  0.18868597817372715 		Uiso   ? 		O 		-0.65393
O 1.0  		0.4053755716628653 		0.48092197665748626  0.18868597817372715 		Uiso   ? 		O 		-0.65393
O 1.0  		0.15544761528968348 		0.7310392723915569  0.18868597817372715 		Uiso   ? 		O 		-0.65393
O 1.0  		0.15431157912435087 		0.23061534156252686  0.511790633324575 		Uiso   ? 		O 		-0.65212
O 1.0  		0.6543568312316034 		0.7306605936697793  0.511790633324575 		Uiso   ? 		O 		-0.65212
O 1.0  		0.4044288748584215 		0.9805885500429612  0.511790633324575 		Uiso   ? 		O 		-0.65212
O 1.0  		0.9042847876047851 		0.4807326372965975  0.511790633324575 		Uiso   ? 		O 		-0.65212
O 1.0  		0.904284787604785 		0.9805885500429612  0.511790633324575 		Uiso   ? 		O 		-0.65212
O 1.0  		0.6543568312316034 		0.23061534156252686  0.511790633324575 		Uiso   ? 		O 		-0.65212
O 1.0  		0.4044288748584215 		0.4807326372965975  0.511790633324575 		Uiso   ? 		O 		-0.65212
O 1.0  		0.15431157912435084 		0.7306605936697793  0.511790633324575 		Uiso   ? 		O 		-0.65212
O 1.0  		0.15431157912435087 		0.2302366628407493  0.8372159296450147 		Uiso   ? 		O 		-0.92932
O 1.0  		0.6541674918707145 		0.7302819149480018  0.8372159296450147 		Uiso   ? 		O 		-0.92932
O 1.0  		0.4042395354975326 		0.9802098713211835  0.8372159296450147 		Uiso   ? 		O 		-0.92932
O 1.0  		0.9042847876047851 		0.4803539585748199  0.8372159296450147 		Uiso   ? 		O 		-0.92932
O 1.0  		0.904284787604785 		0.9802098713211835  0.8372159296450147 		Uiso   ? 		O 		-0.92932
O 1.0  		0.6541674918707145 		0.2302366628407493  0.8372159296450147 		Uiso   ? 		O 		-0.92932
O 1.0  		0.4042395354975326 		0.4803539585748199  0.8372159296450147 		Uiso   ? 		O 		-0.92932
O 1.0  		0.15431157912435084 		0.7302819149480018  0.8372159296450147 		Uiso   ? 		O 		-0.92932
O 1.0  		0.023099402028430416 		0.40253548124953376  0.13798889416110796 		Uiso   ? 		O 		-0.93012
O 1.0  		0.5231446541356829 		0.9025807333567862  0.13798889416110796 		Uiso   ? 		O 		-0.93012
O 1.0  		0.27321669776250107 		0.15260752487635196  0.13798889416110796 		Uiso   ? 		O 		-0.93012
O 1.0  		0.7730726105088648 		0.6526527769836044  0.13798889416110796 		Uiso   ? 		O 		-0.93012
O 1.0  		0.7730726105088648 		0.15260752487635196  0.13798889416110796 		Uiso   ? 		O 		-0.93012
O 1.0  		0.5231446541356829 		0.40253548124953376  0.13798889416110796 		Uiso   ? 		O 		-0.93012
O 1.0  		0.273216697762501 		0.6526527769836044  0.13798889416110796 		Uiso   ? 		O 		-0.93012
O 1.0  		0.023099402028430385 		0.9025807333567862  0.13798889416110796 		Uiso   ? 		O 		-0.93012
O 1.0  		0.018744596727988613 		0.40348217805397757  0.46109354931195584 		Uiso   ? 		O 		-0.65740
O 1.0  		0.5187898488352412 		0.9035274301612302  0.46109354931195584 		Uiso   ? 		O 		-0.65740
O 1.0  		0.2686725531011705 		0.15355422168079583  0.46109354931195584 		Uiso   ? 		O 		-0.65740
O 1.0  		0.7687178052084228 		0.6535994737880483  0.46109354931195584 		Uiso   ? 		O 		-0.65740
O 1.0  		0.7687178052084228 		0.15355422168079583  0.46109354931195584 		Uiso   ? 		O 		-0.65740
O 1.0  		0.5187898488352412 		0.40348217805397757  0.46109354931195584 		Uiso   ? 		O 		-0.65740
O 1.0  		0.26867255310117044 		0.6535994737880483  0.46109354931195584 		Uiso   ? 		O 		-0.65740
O 1.0  		0.01874459672798858 		0.9035274301612302  0.46109354931195584 		Uiso   ? 		O 		-0.65740
O 1.0  		0.018744596727988613 		0.40348217805397757  0.7852692696179998 		Uiso   ? 		O 		-0.65228
O 1.0  		0.5187898488352412 		0.9035274301612302  0.7852692696179998 		Uiso   ? 		O 		-0.65228
O 1.0  		0.2686725531011705 		0.15355422168079583  0.7852692696179998 		Uiso   ? 		O 		-0.65228
O 1.0  		0.7687178052084228 		0.6535994737880483  0.7852692696179998 		Uiso   ? 		O 		-0.65228
O 1.0  		0.7687178052084228 		0.15355422168079583  0.7852692696179998 		Uiso   ? 		O 		-0.65228
O 1.0  		0.5187898488352412 		0.40348217805397757  0.7852692696179998 		Uiso   ? 		O 		-0.65228
O 1.0  		0.26867255310117044 		0.6535994737880483  0.7852692696179998 		Uiso   ? 		O 		-0.65228
O 1.0  		0.01874459672798858 		0.9035274301612302  0.7852692696179998 		Uiso   ? 		O 		-0.65228
O 1.0  		0.8478616580599304 		0.27548877009316636  0.13548974213231685 		Uiso   ? 		O 		-0.81830
O 1.0  		0.347816405952678 		0.77534468283953  0.13548974213231685 		Uiso   ? 		O 		-0.81830
O 1.0  		0.09769911021860744 		0.025371474359095734  0.13548974213231685 		Uiso   ? 		O 		-0.81830
O 1.0  		0.5977443623258599 		0.5254167264663482  0.13548974213231685 		Uiso   ? 		O 		-0.81830
O 1.0  		0.5977443623258599 		0.025371474359095734  0.13548974213231685 		Uiso   ? 		O 		-0.81830
O 1.0  		0.34781640595267804 		0.27548877009316636  0.13548974213231685 		Uiso   ? 		O 		-0.81830
O 1.0  		0.09769911021860742 		0.5254167264663482  0.13548974213231685 		Uiso   ? 		O 		-0.81830
O 1.0  		0.8478616580599304 		0.77534468283953  0.13548974213231685 		Uiso   ? 		O 		-0.81830
O 1.0  		0.8438855314812662 		0.27321669776250107  0.45930844071996213 		Uiso   ? 		O 		-0.61861
O 1.0  		0.34384027937401374 		0.7730726105088648  0.45930844071996213 		Uiso   ? 		O 		-0.61861
O 1.0  		0.09391232300083197 		0.02309940202843044  0.45930844071996213 		Uiso   ? 		O 		-0.61861
O 1.0  		0.5939575751080844 		0.5231446541356829  0.45930844071996213 		Uiso   ? 		O 		-0.61861
O 1.0  		0.5939575751080844 		0.02309940202843044  0.45930844071996213 		Uiso   ? 		O 		-0.61861
O 1.0  		0.3438402793740138 		0.27321669776250107  0.45930844071996213 		Uiso   ? 		O 		-0.61861
O 1.0  		0.09391232300083194 		0.5231446541356829  0.45930844071996213 		Uiso   ? 		O 		-0.61861
O 1.0  		0.8438855314812662 		0.7730726105088648  0.45930844071996213 		Uiso   ? 		O 		-0.61861
O 1.0  		0.8455895857292652 		0.27132330415361333  0.783841182744405 		Uiso   ? 		O 		-0.62538
O 1.0  		0.3455443336220127 		0.771179216899977  0.783841182744405 		Uiso   ? 		O 		-0.62538
O 1.0  		0.09542703788794216 		0.0212060084195427  0.783841182744405 		Uiso   ? 		O 		-0.62538
O 1.0  		0.5954722899951946 		0.5212512605267952  0.783841182744405 		Uiso   ? 		O 		-0.62538
O 1.0  		0.5954722899951946 		0.0212060084195427  0.783841182744405 		Uiso   ? 		O 		-0.62538
O 1.0  		0.34554433362201276 		0.27132330415361333  0.783841182744405 		Uiso   ? 		O 		-0.62538
O 1.0  		0.09542703788794213 		0.5212512605267952  0.783841182744405 		Uiso   ? 		O 		-0.62538
O 1.0  		0.8455895857292652 		0.771179216899977  0.783841182744405 		Uiso   ? 		O 		-0.62538
O 1.0  		0.9374191757603205 		0.09372298363994319  0.1586961538282341 		Uiso   ? 		O 		-0.63914
O 1.0  		0.43737392365306815 		0.5937682357471956  0.1586961538282341 		Uiso   ? 		O 		-0.63914
O 1.0  		0.18725662791899755 		0.8436961921203775  0.1586961538282341 		Uiso   ? 		O 		-0.63914
O 1.0  		0.68730188002625 		0.343650940013125  0.1586961538282341 		Uiso   ? 		O 		-0.63914
O 1.0  		0.68730188002625 		0.8436961921203775  0.1586961538282341 		Uiso   ? 		O 		-0.63914
O 1.0  		0.4373739236530682 		0.09372298363994319  0.1586961538282341 		Uiso   ? 		O 		-0.63914
O 1.0  		0.18725662791899758 		0.343650940013125  0.1586961538282341 		Uiso   ? 		O 		-0.63914
O 1.0  		0.9374191757603205 		0.5937682357471956  0.1586961538282341 		Uiso   ? 		O 		-0.63914
O 1.0  		0.9364724789558767 		0.09448034108349829  0.4818008089790819 		Uiso   ? 		O 		-0.62760
O 1.0  		0.43661656620951306 		0.5945255931907507  0.4818008089790819 		Uiso   ? 		O 		-0.62760
O 1.0  		0.18649927047544243 		0.8444535495639326  0.4818008089790819 		Uiso   ? 		O 		-0.62760
O 1.0  		0.6865445225826949 		0.3445976368175689  0.4818008089790819 		Uiso   ? 		O 		-0.62760
O 1.0  		0.6865445225826949 		0.8444535495639326  0.4818008089790819 		Uiso   ? 		O 		-0.62760
O 1.0  		0.4366165662095131 		0.09448034108349829  0.4818008089790819 		Uiso   ? 		O 		-0.62760
O 1.0  		0.18649927047544246 		0.3445976368175689  0.4818008089790819 		Uiso   ? 		O 		-0.62760
O 1.0  		0.9364724789558767 		0.5945255931907507  0.4818008089790819 		Uiso   ? 		O 		-0.62760
O 1.0  		0.9376085151212094 		0.09561637724883093  0.8086541921731164 		Uiso   ? 		O 		-0.64212
O 1.0  		0.4375632630139569 		0.5956616293560834  0.8086541921731164 		Uiso   ? 		O 		-0.64212
O 1.0  		0.1876353066407751 		0.8455895857292652  0.8086541921731164 		Uiso   ? 		O 		-0.64212
O 1.0  		0.6876805587480276 		0.34554433362201276  0.8086541921731164 		Uiso   ? 		O 		-0.64212
O 1.0  		0.6876805587480276 		0.8455895857292652  0.8086541921731164 		Uiso   ? 		O 		-0.64212
O 1.0  		0.437563263013957 		0.09561637724883093  0.8086541921731164 		Uiso   ? 		O 		-0.64212
O 1.0  		0.18763530664077513 		0.34554433362201276  0.8086541921731164 		Uiso   ? 		O 		-0.64212
O 1.0  		0.9376085151212094 		0.5956616293560834  0.8086541921731164 		Uiso   ? 		O 		-0.64212
O 1.0  		0.15753034825946005 		0.1863099311145537  0.164051479604215 		Uiso   ? 		O 		-0.62435
O 1.0  		0.6575756003667125 		0.6861658438609174  0.164051479604215 		Uiso   ? 		O 		-0.62435
O 1.0  		0.4076476439935306 		0.936283139594988  0.164051479604215 		Uiso   ? 		O 		-0.62435
O 1.0  		0.9075035567398944 		0.4362378874877355  0.164051479604215 		Uiso   ? 		O 		-0.62435
O 1.0  		0.9075035567398942 		0.936283139594988  0.164051479604215 		Uiso   ? 		O 		-0.62435
O 1.0  		0.6575756003667125 		0.1863099311145537  0.164051479604215 		Uiso   ? 		O 		-0.62435
O 1.0  		0.40764764399353065 		0.4362378874877355  0.164051479604215 		Uiso   ? 		O 		-0.62435
O 1.0  		0.15753034825946 		0.6861658438609174  0.164051479604215 		Uiso   ? 		O 		-0.62435
O 1.0  		0.15620497273323863 		0.18706728855810884  0.48840571076945843 		Uiso   ? 		O 		-0.63941
O 1.0  		0.6562502248404911 		0.6871125406653612  0.48840571076945843 		Uiso   ? 		O 		-0.63941
O 1.0  		0.4063222684673092 		0.9370404970385431  0.48840571076945843 		Uiso   ? 		O 		-0.63941
O 1.0  		0.9061781812136728 		0.4369952449312906  0.48840571076945843 		Uiso   ? 		O 		-0.63941
O 1.0  		0.9061781812136727 		0.9370404970385431  0.48840571076945843 		Uiso   ? 		O 		-0.63941
O 1.0  		0.6562502248404911 		0.18706728855810884  0.48840571076945843 		Uiso   ? 		O 		-0.63941
O 1.0  		0.40632226846730923 		0.4369952449312906  0.48840571076945843 		Uiso   ? 		O 		-0.63941
O 1.0  		0.15620497273323858 		0.6871125406653612  0.48840571076945843 		Uiso   ? 		O 		-0.63941
O 1.0  		0.1537435610416846 		0.18839266408433025  0.8100822790467114 		Uiso   ? 		O 		-0.65265
O 1.0  		0.653788813148937 		0.6884379161915827  0.8100822790467114 		Uiso   ? 		O 		-0.65265
O 1.0  		0.4038608567757551 		0.9383658725647646  0.8100822790467114 		Uiso   ? 		O 		-0.65265
O 1.0  		0.9039061088830076 		0.4383206204575121  0.8100822790467114 		Uiso   ? 		O 		-0.65265
O 1.0  		0.9039061088830075 		0.9383658725647646  0.8100822790467114 		Uiso   ? 		O 		-0.65265
O 1.0  		0.653788813148937 		0.18839266408433025  0.8100822790467114 		Uiso   ? 		O 		-0.65265
O 1.0  		0.4038608567757552 		0.4383206204575121  0.8100822790467114 		Uiso   ? 		O 		-0.65265
O 1.0  		0.15374356104168455 		0.6884379161915827  0.8100822790467114 		Uiso   ? 		O 		-0.65265
O 1.0  		0.0018933936088877377 		0.056991147627521006  0.160124240701829 		Uiso   ? 		O 		-1.01498
O 1.0  		0.5019386457161401 		0.5570363997347735  0.160124240701829 		Uiso   ? 		O 		-1.01498
O 1.0  		0.2518213499820695 		0.8069643561079551  0.160124240701829 		Uiso   ? 		O 		-1.01498
O 1.0  		0.751866602089322 		0.30710844336159165  0.160124240701829 		Uiso   ? 		O 		-1.01498
O 1.0  		0.751866602089322 		0.8069643561079551  0.160124240701829 		Uiso   ? 		O 		-1.01498
O 1.0  		0.5019386457161401 		0.056991147627521006  0.160124240701829 		Uiso   ? 		O 		-1.01498
O 1.0  		0.25182134998206956 		0.30710844336159165  0.160124240701829 		Uiso   ? 		O 		-1.01498
O 1.0  		0.0018933936088877071 		0.5570363997347735  0.160124240701829 		Uiso   ? 		O 		-1.01498
O 1.0  		-3.478107633975641e-18 		0.05680180826663223  0.48572804788146795 		Uiso   ? 		O 		-0.99049
O 1.0  		0.5000452521072525 		0.5568470603738847  0.48572804788146795 		Uiso   ? 		O 		-0.99049
O 1.0  		0.2499279563731818 		0.8067750167470665  0.48572804788146795 		Uiso   ? 		O 		-0.99049
O 1.0  		0.7499732084804343 		0.3067297646398141  0.48572804788146795 		Uiso   ? 		O 		-0.99049
O 1.0  		0.7499732084804343 		0.8067750167470665  0.48572804788146795 		Uiso   ? 		O 		-0.99049
O 1.0  		0.5000452521072525 		0.05680180826663223  0.48572804788146795 		Uiso   ? 		O 		-0.99049
O 1.0  		0.24992795637318183 		0.3067297646398141  0.48572804788146795 		Uiso   ? 		O 		-0.99049
O 1.0  		-3.409704850507454e-17 		0.5568470603738847  0.48572804788146795 		Uiso   ? 		O 		-0.99049
O 1.0  		0.0020827329697765116 		0.058316523153742424  0.8113318550611068 		Uiso   ? 		O 		-0.98738
O 1.0  		0.5019386457161401 		0.5581724359001061  0.8113318550611068 		Uiso   ? 		O 		-0.98738
O 1.0  		0.2520106893429583 		0.8082897316341767  0.8113318550611068 		Uiso   ? 		O 		-0.98738
O 1.0  		0.7520559414502108 		0.30824447952692424  0.8113318550611068 		Uiso   ? 		O 		-0.98738
O 1.0  		0.7520559414502108 		0.8082897316341767  0.8113318550611068 		Uiso   ? 		O 		-0.98738
O 1.0  		0.5019386457161401 		0.058316523153742424  0.8113318550611068 		Uiso   ? 		O 		-0.98738
O 1.0  		0.25201068934295834 		0.30824447952692424  0.8113318550611068 		Uiso   ? 		O 		-0.98738
O 1.0  		0.002082732969776481 		0.5581724359001061  0.8113318550611068 		Uiso   ? 		O 		-0.98738
O 1.0  		0.9758550660207418 		0.34270424320868115  0.3514878817635466 		Uiso   ? 		O 		-0.61313
O 1.0  		0.47580981391348925 		0.8427494953159335  0.3514878817635466 		Uiso   ? 		O 		-0.61313
O 1.0  		0.22588185754030754 		0.09277628683549931  0.3514878817635466 		Uiso   ? 		O 		-0.61313
O 1.0  		0.7259271096475599 		0.5928215389427517  0.3514878817635466 		Uiso   ? 		O 		-0.61313
O 1.0  		0.7259271096475599 		0.09277628683549931  0.3514878817635466 		Uiso   ? 		O 		-0.61313
O 1.0  		0.4758098139134893 		0.34270424320868115  0.3514878817635466 		Uiso   ? 		O 		-0.61313
O 1.0  		0.2258818575403075 		0.5928215389427517  0.3514878817635466 		Uiso   ? 		O 		-0.61313
O 1.0  		0.9758550660207418 		0.8427494953159335  0.3514878817635466 		Uiso   ? 		O 		-0.61313
O 1.0  		0.9758550660207418 		0.3425149038477924  0.6756636020695906 		Uiso   ? 		O 		-0.61725
O 1.0  		0.47580981391348925 		0.8425601559550449  0.6756636020695906 		Uiso   ? 		O 		-0.61725
O 1.0  		0.22569251817941874 		0.09258694747461053  0.6756636020695906 		Uiso   ? 		O 		-0.61725
O 1.0  		0.7257377702866712 		0.592632199581863  0.6756636020695906 		Uiso   ? 		O 		-0.61725
O 1.0  		0.7257377702866712 		0.09258694747461053  0.6756636020695906 		Uiso   ? 		O 		-0.61725
O 1.0  		0.4758098139134893 		0.3425149038477924  0.6756636020695906 		Uiso   ? 		O 		-0.61725
O 1.0  		0.2256925181794187 		0.592632199581863  0.6756636020695906 		Uiso   ? 		O 		-0.61725
O 1.0  		0.9758550660207418 		0.8425601559550449  0.6756636020695906 		Uiso   ? 		O 		-0.61725
O 1.0  		0.9042847876047851 		0.23061534156252686  0.3502383057491511 		Uiso   ? 		O 		-0.65400
O 1.0  		0.4042395354975326 		0.7306605936697793  0.3502383057491511 		Uiso   ? 		O 		-0.65400
O 1.0  		0.15431157912435084 		0.9805885500429612  0.3502383057491511 		Uiso   ? 		O 		-0.65400
O 1.0  		0.6543568312316034 		0.4807326372965975  0.3502383057491511 		Uiso   ? 		O 		-0.65400
O 1.0  		0.6543568312316033 		0.9805885500429612  0.3502383057491511 		Uiso   ? 		O 		-0.65400
O 1.0  		0.40423953549753266 		0.23061534156252686  0.3502383057491511 		Uiso   ? 		O 		-0.65400
O 1.0  		0.15431157912435087 		0.4807326372965975  0.3502383057491511 		Uiso   ? 		O 		-0.65400
O 1.0  		0.9042847876047851 		0.7306605936697793  0.3502383057491511 		Uiso   ? 		O 		-0.65400
O 1.0  		0.9042847876047851 		0.23061534156252686  0.6733429608999989 		Uiso   ? 		O 		-0.65069
O 1.0  		0.4042395354975326 		0.7306605936697793  0.6733429608999989 		Uiso   ? 		O 		-0.65069
O 1.0  		0.15431157912435084 		0.9805885500429612  0.6733429608999989 		Uiso   ? 		O 		-0.65069
O 1.0  		0.6543568312316034 		0.4807326372965975  0.6733429608999989 		Uiso   ? 		O 		-0.65069
O 1.0  		0.6543568312316033 		0.9805885500429612  0.6733429608999989 		Uiso   ? 		O 		-0.65069
O 1.0  		0.40423953549753266 		0.23061534156252686  0.6733429608999989 		Uiso   ? 		O 		-0.65069
O 1.0  		0.15431157912435087 		0.4807326372965975  0.6733429608999989 		Uiso   ? 		O 		-0.65069
O 1.0  		0.9042847876047851 		0.7306605936697793  0.6733429608999989 		Uiso   ? 		O 		-0.65069
O 1.0  		0.018744596727988627 		0.15336488231990705  0.29954122173653186 		Uiso   ? 		O 		-0.66145
O 1.0  		0.5187898488352412 		0.6534101344271595  0.29954122173653186 		Uiso   ? 		O 		-0.66145
O 1.0  		0.26867255310117044 		0.9033380908003413  0.29954122173653186 		Uiso   ? 		O 		-0.66145
O 1.0  		0.7687178052084228 		0.40348217805397757  0.29954122173653186 		Uiso   ? 		O 		-0.66145
O 1.0  		0.7687178052084228 		0.9033380908003413  0.29954122173653186 		Uiso   ? 		O 		-0.66145
O 1.0  		0.5187898488352412 		0.15336488231990705  0.29954122173653186 		Uiso   ? 		O 		-0.66145
O 1.0  		0.2686725531011705 		0.40348217805397757  0.29954122173653186 		Uiso   ? 		O 		-0.66145
O 1.0  		0.018744596727988595 		0.6534101344271595  0.29954122173653186 		Uiso   ? 		O 		-0.66145
O 1.0  		0.018744596727988627 		0.15336488231990705  0.6235384311833765 		Uiso   ? 		O 		-0.65765
O 1.0  		0.5187898488352412 		0.6534101344271595  0.6235384311833765 		Uiso   ? 		O 		-0.65765
O 1.0  		0.26867255310117044 		0.9033380908003413  0.6235384311833765 		Uiso   ? 		O 		-0.65765
O 1.0  		0.7687178052084228 		0.40348217805397757  0.6235384311833765 		Uiso   ? 		O 		-0.65765
O 1.0  		0.7687178052084228 		0.9033380908003413  0.6235384311833765 		Uiso   ? 		O 		-0.65765
O 1.0  		0.5187898488352412 		0.15336488231990705  0.6235384311833765 		Uiso   ? 		O 		-0.65765
O 1.0  		0.2686725531011705 		0.40348217805397757  0.6235384311833765 		Uiso   ? 		O 		-0.65765
O 1.0  		0.018744596727988595 		0.6534101344271595  0.6235384311833765 		Uiso   ? 		O 		-0.65765
O 1.0  		0.0935336442790544 		0.2735953764842786  0.2970420697077408 		Uiso   ? 		O 		-0.62132
O 1.0  		0.5935788963863068 		0.7734512892306422  0.2970420697077408 		Uiso   ? 		O 		-0.62132
O 1.0  		0.343650940013125 		0.02347808075020799  0.2970420697077408 		Uiso   ? 		O 		-0.62132
O 1.0  		0.8435068527594887 		0.5235233328574604  0.2970420697077408 		Uiso   ? 		O 		-0.62132
O 1.0  		0.8435068527594887 		0.02347808075020799  0.2970420697077408 		Uiso   ? 		O 		-0.62132
O 1.0  		0.5935788963863068 		0.2735953764842786  0.2970420697077408 		Uiso   ? 		O 		-0.62132
O 1.0  		0.34365094001312496 		0.5235233328574604  0.2970420697077408 		Uiso   ? 		O 		-0.62132
O 1.0  		0.09353364427905438 		0.7734512892306422  0.2970420697077408 		Uiso   ? 		O 		-0.62132
O 1.0  		0.09391232300083195 		0.27321669776250107  0.6210392791545855 		Uiso   ? 		O 		-0.61690
O 1.0  		0.5937682357471956 		0.7732619498697534  0.6210392791545855 		Uiso   ? 		O 		-0.61690
O 1.0  		0.3438402793740138 		0.023288741389319214  0.6210392791545855 		Uiso   ? 		O 		-0.61690
O 1.0  		0.8438855314812662 		0.5233339934965716  0.6210392791545855 		Uiso   ? 		O 		-0.61690
O 1.0  		0.8438855314812662 		0.023288741389319214  0.6210392791545855 		Uiso   ? 		O 		-0.61690
O 1.0  		0.5937682357471956 		0.27321669776250107  0.6210392791545855 		Uiso   ? 		O 		-0.61690
O 1.0  		0.34384027937401374 		0.5233339934965716  0.6210392791545855 		Uiso   ? 		O 		-0.61690
O 1.0  		0.09391232300083192 		0.7732619498697534  0.6210392791545855 		Uiso   ? 		O 		-0.61690
O 1.0  		0.9364724789558767 		0.3444082974566801  0.320248481403658 		Uiso   ? 		O 		-0.62682
O 1.0  		0.43661656620951306 		0.8442642102030437  0.320248481403658 		Uiso   ? 		O 		-0.62682
O 1.0  		0.18649927047544249 		0.09429100172260951  0.320248481403658 		Uiso   ? 		O 		-0.62682
O 1.0  		0.6865445225826949 		0.5943362538298619  0.320248481403658 		Uiso   ? 		O 		-0.62682
O 1.0  		0.6865445225826949 		0.09429100172260951  0.320248481403658 		Uiso   ? 		O 		-0.62682
O 1.0  		0.4366165662095131 		0.3444082974566801  0.320248481403658 		Uiso   ? 		O 		-0.62682
O 1.0  		0.18649927047544246 		0.5943362538298619  0.320248481403658 		Uiso   ? 		O 		-0.62682
O 1.0  		0.9364724789558767 		0.8442642102030437  0.320248481403658 		Uiso   ? 		O 		-0.62682
O 1.0  		0.9366618183167655 		0.3444082974566801  0.6431746256953065 		Uiso   ? 		O 		-0.62805
O 1.0  		0.43661656620951306 		0.8444535495639326  0.6431746256953065 		Uiso   ? 		O 		-0.62805
O 1.0  		0.18668860983633126 		0.09448034108349829  0.6431746256953065 		Uiso   ? 		O 		-0.62805
O 1.0  		0.6867338619435837 		0.5945255931907507  0.6431746256953065 		Uiso   ? 		O 		-0.62805
O 1.0  		0.6867338619435837 		0.09448034108349829  0.6431746256953065 		Uiso   ? 		O 		-0.62805
O 1.0  		0.4366165662095131 		0.3444082974566801  0.6431746256953065 		Uiso   ? 		O 		-0.62805
O 1.0  		0.18668860983633123 		0.5945255931907507  0.6431746256953065 		Uiso   ? 		O 		-0.62805
O 1.0  		0.9366618183167655 		0.8444535495639326  0.6431746256953065 		Uiso   ? 		O 		-0.62805
O 1.0  		0.9063675205745617 		0.1872566279189976  0.32685338319403445 		Uiso   ? 		O 		-0.63979
O 1.0  		0.4063222684673092 		0.6871125406653612  0.32685338319403445 		Uiso   ? 		O 		-0.63979
O 1.0  		0.15620497273323858 		0.9372298363994319  0.32685338319403445 		Uiso   ? 		O 		-0.63979
O 1.0  		0.6562502248404911 		0.43718458429217943  0.32685338319403445 		Uiso   ? 		O 		-0.63979
O 1.0  		0.656250224840491 		0.9372298363994319  0.32685338319403445 		Uiso   ? 		O 		-0.63979
O 1.0  		0.40632226846730923 		0.1872566279189976  0.32685338319403445 		Uiso   ? 		O 		-0.63979
O 1.0  		0.1562049727332386 		0.43718458429217943  0.32685338319403445 		Uiso   ? 		O 		-0.63979
O 1.0  		0.9063675205745617 		0.6871125406653612  0.32685338319403445 		Uiso   ? 		O 		-0.63979
O 1.0  		0.9061781812136728 		0.18706728855810884  0.6510291035000785 		Uiso   ? 		O 		-0.63868
O 1.0  		0.4061329291064204 		0.6871125406653612  0.6510291035000785 		Uiso   ? 		O 		-0.63868
O 1.0  		0.15620497273323858 		0.9370404970385431  0.6510291035000785 		Uiso   ? 		O 		-0.63868
O 1.0  		0.6560608854796023 		0.4369952449312906  0.6510291035000785 		Uiso   ? 		O 		-0.63868
O 1.0  		0.6560608854796022 		0.9370404970385431  0.6510291035000785 		Uiso   ? 		O 		-0.63868
O 1.0  		0.40613292910642046 		0.18706728855810884  0.6510291035000785 		Uiso   ? 		O 		-0.63868
O 1.0  		0.1562049727332386 		0.4369952449312906  0.6510291035000785 		Uiso   ? 		O 		-0.63868
O 1.0  		0.9061781812136728 		0.6871125406653612  0.6510291035000785 		Uiso   ? 		O 		-0.63868
O 1.0  		0.9501049129398684 		0.2997242082869294  0.34595404512836636 		Uiso   ? 		O 		-0.99633
O 1.0  		0.45024900019350483 		0.799580121033293  0.34595404512836636 		Uiso   ? 		O 		-0.99633
O 1.0  		0.20013170445943423 		0.04960691255285882  0.34595404512836636 		Uiso   ? 		O 		-0.99633
O 1.0  		0.7001769565666867 		0.5496521646601112  0.34595404512836636 		Uiso   ? 		O 		-0.99633
O 1.0  		0.7001769565666867 		0.04960691255285882  0.34595404512836636 		Uiso   ? 		O 		-0.99633
O 1.0  		0.4502490001935049 		0.2997242082869294  0.34595404512836636 		Uiso   ? 		O 		-0.99633
O 1.0  		0.2001317044594342 		0.5496521646601112  0.34595404512836636 		Uiso   ? 		O 		-0.99633
O 1.0  		0.9501049129398684 		0.799580121033293  0.34595404512836636 		Uiso   ? 		O 		-0.99633
O 1.0  		0.9501049129398684 		0.2997242082869294  0.6694157219976129 		Uiso   ? 		O 		-0.99850
O 1.0  		0.45024900019350483 		0.799580121033293  0.6694157219976129 		Uiso   ? 		O 		-0.99850
O 1.0  		0.20013170445943423 		0.04960691255285882  0.6694157219976129 		Uiso   ? 		O 		-0.99850
O 1.0  		0.7001769565666867 		0.5496521646601112  0.6694157219976129 		Uiso   ? 		O 		-0.99850
O 1.0  		0.7001769565666867 		0.04960691255285882  0.6694157219976129 		Uiso   ? 		O 		-0.99850
O 1.0  		0.4502490001935049 		0.2997242082869294  0.6694157219976129 		Uiso   ? 		O 		-0.99850
O 1.0  		0.2001317044594342 		0.5496521646601112  0.6694157219976129 		Uiso   ? 		O 		-0.99850
O 1.0  		0.9501049129398684 		0.799580121033293  0.6694157219976129 		Uiso   ? 		O 		-0.99850
O 1.0  		0.9523769852705338 		0.20202509806832197  0.34595404512836636 		Uiso   ? 		O 		-0.93476
O 1.0  		0.4525210725241701 		0.7020703501755744  0.34595404512836636 		Uiso   ? 		O 		-0.93476
O 1.0  		0.20240377679009947 		0.9519983065487562  0.34595404512836636 		Uiso   ? 		O 		-0.93476
O 1.0  		0.702449028897352 		0.4519530544415038  0.34595404512836636 		Uiso   ? 		O 		-0.93476
O 1.0  		0.7024490288973518 		0.9519983065487562  0.34595404512836636 		Uiso   ? 		O 		-0.93476
O 1.0  		0.4525210725241702 		0.20202509806832197  0.34595404512836636 		Uiso   ? 		O 		-0.93476
O 1.0  		0.2024037767900995 		0.4519530544415038  0.34595404512836636 		Uiso   ? 		O 		-0.93476
O 1.0  		0.9523769852705338 		0.7020703501755744  0.34595404512836636 		Uiso   ? 		O 		-0.93476
O 1.0  		0.9523769852705338 		0.20221443742921077  0.6694157219976129 		Uiso   ? 		O 		-0.93420
O 1.0  		0.45233173316328124 		0.7020703501755744  0.6694157219976129 		Uiso   ? 		O 		-0.93420
O 1.0  		0.20240377679009947 		0.952187645909645  0.6694157219976129 		Uiso   ? 		O 		-0.93420
O 1.0  		0.7022596895364632 		0.4521423938023926  0.6694157219976129 		Uiso   ? 		O 		-0.93420
O 1.0  		0.7022596895364631 		0.952187645909645  0.6694157219976129 		Uiso   ? 		O 		-0.93420
O 1.0  		0.4523317331632813 		0.20221443742921077  0.6694157219976129 		Uiso   ? 		O 		-0.93420
O 1.0  		0.2024037767900995 		0.4521423938023926  0.6694157219976129 		Uiso   ? 		O 		-0.93420
O 1.0  		0.9523769852705338 		0.7020703501755744  0.6694157219976129 		Uiso   ? 		O 		-0.93420
O 1.0  		0.00018933936088875533 		0.3067297646398141  0.324175720306044 		Uiso   ? 		O 		-0.98979
O 1.0  		0.5000452521072525 		0.8067750167470665  0.324175720306044 		Uiso   ? 		O 		-0.98979
O 1.0  		0.2501172957340706 		0.05680180826663223  0.324175720306044 		Uiso   ? 		O 		-0.98979
O 1.0  		0.7501625478413231 		0.5566577210129959  0.324175720306044 		Uiso   ? 		O 		-0.98979
O 1.0  		0.7501625478413231 		0.05680180826663223  0.324175720306044 		Uiso   ? 		O 		-0.98979
O 1.0  		0.5000452521072525 		0.3067297646398141  0.324175720306044 		Uiso   ? 		O 		-0.98979
O 1.0  		0.25011729573407054 		0.5566577210129959  0.324175720306044 		Uiso   ? 		O 		-0.98979
O 1.0  		0.0001893393608887247 		0.8067750167470665  0.324175720306044 		Uiso   ? 		O 		-0.98979
O 1.0  		0.999901164853616 		0.3067297646398141  0.6471018645976925 		Uiso   ? 		O 		-0.98832
O 1.0  		0.49985591274636365 		0.8067750167470665  0.6471018645976925 		Uiso   ? 		O 		-0.98832
O 1.0  		0.24992795637318185 		0.05680180826663223  0.6471018645976925 		Uiso   ? 		O 		-0.98832
O 1.0  		0.7497838691195455 		0.5566577210129959  0.6471018645976925 		Uiso   ? 		O 		-0.98832
O 1.0  		0.7497838691195455 		0.05680180826663223  0.6471018645976925 		Uiso   ? 		O 		-0.98832
O 1.0  		0.4998559127463637 		0.3067297646398141  0.6471018645976925 		Uiso   ? 		O 		-0.98832
O 1.0  		0.24992795637318183 		0.5566577210129959  0.6471018645976925 		Uiso   ? 		O 		-0.98832
O 1.0  		0.999901164853616 		0.8067750167470665  0.6471018645976925 		Uiso   ? 		O 		-0.98832
O 1.0  		0.846536282533709 		0.22758591178830648  0.13406165525872196 		Uiso   ? 		O 		-0.92315
O 1.0  		0.34649103042645657 		0.7276311638955589  0.13406165525872196 		Uiso   ? 		O 		-0.92315
O 1.0  		0.09656307405327474 		0.9775591202687408  0.13406165525872196 		Uiso   ? 		O 		-0.92315
O 1.0  		0.5966083261605272 		0.4775138681614883  0.13406165525872196 		Uiso   ? 		O 		-0.92315
O 1.0  		0.5966083261605271 		0.9775591202687408  0.13406165525872196 		Uiso   ? 		O 		-0.92315
O 1.0  		0.3464910304264566 		0.22758591178830648  0.13406165525872196 		Uiso   ? 		O 		-0.92315
O 1.0  		0.09656307405327477 		0.4775138681614883  0.13406165525872196 		Uiso   ? 		O 		-0.92315
O 1.0  		0.846536282533709 		0.7276311638955589  0.13406165525872196 		Uiso   ? 		O 		-0.92315
O 1.0  		0.8454002463683764 		0.2304260022016381  0.4585943972831647 		Uiso   ? 		O 		-0.63778
O 1.0  		0.3453549942611239 		0.7304712543088906  0.4585943972831647 		Uiso   ? 		O 		-0.63778
O 1.0  		0.0954270378879421 		0.9803992106820724  0.4585943972831647 		Uiso   ? 		O 		-0.63778
O 1.0  		0.5952829506343058 		0.4803539585748199  0.4585943972831647 		Uiso   ? 		O 		-0.63778
O 1.0  		0.5952829506343057 		0.9803992106820724  0.4585943972831647 		Uiso   ? 		O 		-0.63778
O 1.0  		0.345354994261124 		0.2304260022016381  0.4585943972831647 		Uiso   ? 		O 		-0.63778
O 1.0  		0.09542703788794213 		0.4803539585748199  0.4585943972831647 		Uiso   ? 		O 		-0.63778
O 1.0  		0.8454002463683764 		0.7304712543088906  0.4585943972831647 		Uiso   ? 		O 		-0.63778
O 1.0  		0.8436961921203775 		0.22853260859275037  0.7825916067300094 		Uiso   ? 		O 		-0.65308
O 1.0  		0.34384027937401374 		0.7285778607000027  0.7825916067300094 		Uiso   ? 		O 		-0.65308
O 1.0  		0.09372298363994314 		0.9785058170731846  0.7825916067300094 		Uiso   ? 		O 		-0.65308
O 1.0  		0.5937682357471956 		0.4784605649659322  0.7825916067300094 		Uiso   ? 		O 		-0.65308
O 1.0  		0.5937682357471955 		0.9785058170731846  0.7825916067300094 		Uiso   ? 		O 		-0.65308
O 1.0  		0.3438402793740138 		0.22853260859275037  0.7825916067300094 		Uiso   ? 		O 		-0.65308
O 1.0  		0.09372298363994316 		0.4784605649659322  0.7825916067300094 		Uiso   ? 		O 		-0.65308
O 1.0  		0.8436961921203775 		0.7285778607000027  0.7825916067300094 		Uiso   ? 		O 		-0.65308
O 1.0  		0.975665726659853 		0.40518623230197665  0.13299059010352576 		Uiso   ? 		O 		-0.82364
O 1.0  		0.47562047455260054 		0.9050421450483404  0.13299059010352576 		Uiso   ? 		O 		-0.82364
O 1.0  		0.22569251817941874 		0.155068936567906  0.13299059010352576 		Uiso   ? 		O 		-0.82364
O 1.0  		0.7255484309257824 		0.6551141886751585  0.13299059010352576 		Uiso   ? 		O 		-0.82364
O 1.0  		0.7255484309257824 		0.155068936567906  0.13299059010352576 		Uiso   ? 		O 		-0.82364
O 1.0  		0.4756204745526006 		0.40518623230197665  0.13299059010352576 		Uiso   ? 		O 		-0.82364
O 1.0  		0.2256925181794187 		0.6551141886751585  0.13299059010352576 		Uiso   ? 		O 		-0.82364
O 1.0  		0.975665726659853 		0.9050421450483404  0.13299059010352576 		Uiso   ? 		O 		-0.82364
O 1.0  		0.9764230841034081 		0.40613292910642046  0.45841588642396536 		Uiso   ? 		O 		-0.62932
O 1.0  		0.47637783199615563 		0.9061781812136728  0.45841588642396536 		Uiso   ? 		O 		-0.62932
O 1.0  		0.22644987562297383 		0.15620497273323863  0.45841588642396536 		Uiso   ? 		O 		-0.62932
O 1.0  		0.7264951277302263 		0.6562502248404911  0.45841588642396536 		Uiso   ? 		O 		-0.62932
O 1.0  		0.7264951277302263 		0.15620497273323863  0.45841588642396536 		Uiso   ? 		O 		-0.62932
O 1.0  		0.4763778319961557 		0.40613292910642046  0.45841588642396536 		Uiso   ? 		O 		-0.62932
O 1.0  		0.2264498756229738 		0.6562502248404911  0.45841588642396536 		Uiso   ? 		O 		-0.62932
O 1.0  		0.9764230841034081 		0.9061781812136728  0.45841588642396536 		Uiso   ? 		O 		-0.62932
O 1.0  		0.9764230841034081 		0.40613292910642046  0.7825916067300094 		Uiso   ? 		O 		-0.64745
O 1.0  		0.47637783199615563 		0.9061781812136728  0.7825916067300094 		Uiso   ? 		O 		-0.64745
O 1.0  		0.22644987562297383 		0.15620497273323863  0.7825916067300094 		Uiso   ? 		O 		-0.64745
O 1.0  		0.7264951277302263 		0.6562502248404911  0.7825916067300094 		Uiso   ? 		O 		-0.64745
O 1.0  		0.7264951277302263 		0.15620497273323863  0.7825916067300094 		Uiso   ? 		O 		-0.64745
O 1.0  		0.4763778319961557 		0.40613292910642046  0.7825916067300094 		Uiso   ? 		O 		-0.64745
O 1.0  		0.2264498756229738 		0.6562502248404911  0.7825916067300094 		Uiso   ? 		O 		-0.64745
O 1.0  		0.9764230841034081 		0.9061781812136728  0.7825916067300094 		Uiso   ? 		O 		-0.64745
O 1.0  		0.15639431209412738 		0.2734060371233898  0.18725789130013223 		Uiso   ? 		O 		-0.62788
O 1.0  		0.6564395642013798 		0.7734512892306422  0.18725789130013223 		Uiso   ? 		O 		-0.62788
O 1.0  		0.40632226846730923 		0.02347808075020799  0.18725789130013223 		Uiso   ? 		O 		-0.62788
O 1.0  		0.9063675205745617 		0.5233339934965716  0.18725789130013223 		Uiso   ? 		O 		-0.62788
O 1.0  		0.9063675205745617 		0.02347808075020799  0.18725789130013223 		Uiso   ? 		O 		-0.62788
O 1.0  		0.6564395642013798 		0.2734060371233898  0.18725789130013223 		Uiso   ? 		O 		-0.62788
O 1.0  		0.4063222684673092 		0.5233339934965716  0.18725789130013223 		Uiso   ? 		O 		-0.62788
O 1.0  		0.15639431209412735 		0.7734512892306422  0.18725789130013223 		Uiso   ? 		O 		-0.62788
O 1.0  		0.15469025784612842 		0.27321669776250107  0.5103625464509801 		Uiso   ? 		O 		-0.63406
O 1.0  		0.6545461705924921 		0.7732619498697534  0.5103625464509801 		Uiso   ? 		O 		-0.63406
O 1.0  		0.40461821421931027 		0.023288741389319214  0.5103625464509801 		Uiso   ? 		O 		-0.63406
O 1.0  		0.9046634663265626 		0.5233339934965716  0.5103625464509801 		Uiso   ? 		O 		-0.63406
O 1.0  		0.9046634663265626 		0.023288741389319214  0.5103625464509801 		Uiso   ? 		O 		-0.63406
O 1.0  		0.6545461705924921 		0.27321669776250107  0.5103625464509801 		Uiso   ? 		O 		-0.63406
O 1.0  		0.4046182142193102 		0.5233339934965716  0.5103625464509801 		Uiso   ? 		O 		-0.63406
O 1.0  		0.1546902578461284 		0.7732619498697534  0.5103625464509801 		Uiso   ? 		O 		-0.63406
O 1.0  		0.1569623301767937 		0.2781395211456092  0.8397150816738056 		Uiso   ? 		O 		-0.82548
O 1.0  		0.6570075822840462 		0.7779954338919728  0.8397150816738056 		Uiso   ? 		O 		-0.82548
O 1.0  		0.40707962591086433 		0.02802222541153857  0.8397150816738056 		Uiso   ? 		O 		-0.82548
O 1.0  		0.9071248780181168 		0.528067477518791  0.8397150816738056 		Uiso   ? 		O 		-0.82548
O 1.0  		0.9071248780181168 		0.02802222541153857  0.8397150816738056 		Uiso   ? 		O 		-0.82548
O 1.0  		0.6570075822840462 		0.2781395211456092  0.8397150816738056 		Uiso   ? 		O 		-0.82548
O 1.0  		0.4070796259108643 		0.528067477518791  0.8397150816738056 		Uiso   ? 		O 		-0.82548
O 1.0  		0.15696233017679367 		0.7779954338919728  0.8397150816738056 		Uiso   ? 		O 		-0.82548
O 1.0  		0.019880632893321273 		0.09561637724883093  0.18743640215933163 		Uiso   ? 		O 		-0.65043
O 1.0  		0.519736545639685 		0.5956616293560834  0.18743640215933163 		Uiso   ? 		O 		-0.65043
O 1.0  		0.2698085892665031 		0.8455895857292652  0.18743640215933163 		Uiso   ? 		O 		-0.65043
O 1.0  		0.7698538413737556 		0.34554433362201276  0.18743640215933163 		Uiso   ? 		O 		-0.65043
O 1.0  		0.7698538413737556 		0.8455895857292652  0.18743640215933163 		Uiso   ? 		O 		-0.65043
O 1.0  		0.519736545639685 		0.09561637724883093  0.18743640215933163 		Uiso   ? 		O 		-0.65043
O 1.0  		0.26980858926650314 		0.34554433362201276  0.18743640215933163 		Uiso   ? 		O 		-0.65043
O 1.0  		0.019880632893321242 		0.5956616293560834  0.18743640215933163 		Uiso   ? 		O 		-0.65043
O 1.0  		0.01931261481065495 		0.09561637724883093  0.511790633324575 		Uiso   ? 		O 		-0.64502
O 1.0  		0.5193578669179074 		0.5956616293560834  0.511790633324575 		Uiso   ? 		O 		-0.64502
O 1.0  		0.2692405711838367 		0.8455895857292652  0.511790633324575 		Uiso   ? 		O 		-0.64502
O 1.0  		0.7692858232910892 		0.34554433362201276  0.511790633324575 		Uiso   ? 		O 		-0.64502
O 1.0  		0.7692858232910892 		0.8455895857292652  0.511790633324575 		Uiso   ? 		O 		-0.64502
O 1.0  		0.5193578669179074 		0.09561637724883093  0.511790633324575 		Uiso   ? 		O 		-0.64502
O 1.0  		0.26924057118383676 		0.34554433362201276  0.511790633324575 		Uiso   ? 		O 		-0.64502
O 1.0  		0.01931261481065492 		0.5956616293560834  0.511790633324575 		Uiso   ? 		O 		-0.64502
O 1.0  		0.026318171163539596 		0.09485901980527583  0.8384655056594101 		Uiso   ? 		O 		-0.82296
O 1.0  		0.5261740839099033 		0.5947149325516395  0.8384655056594101 		Uiso   ? 		O 		-0.82296
O 1.0  		0.2762461275367214 		0.84483222828571  0.8384655056594101 		Uiso   ? 		O 		-0.82296
O 1.0  		0.7762913796439738 		0.34478697617845766  0.8384655056594101 		Uiso   ? 		O 		-0.82296
O 1.0  		0.7762913796439738 		0.84483222828571  0.8384655056594101 		Uiso   ? 		O 		-0.82296
O 1.0  		0.5261740839099033 		0.09485901980527583  0.8384655056594101 		Uiso   ? 		O 		-0.82296
O 1.0  		0.27624612753672145 		0.34478697617845766  0.8384655056594101 		Uiso   ? 		O 		-0.82296
O 1.0  		0.02631817116353957 		0.5947149325516395  0.8384655056594101 		Uiso   ? 		O 		-0.82296
O 1.0  		0.8454002463683764 		0.1857419130318874  0.15887466468743347 		Uiso   ? 		O 		-0.65870
O 1.0  		0.3453549942611239 		0.6857871651391398  0.15887466468743347 		Uiso   ? 		O 		-0.65870
O 1.0  		0.0954270378879421 		0.9357151215123217  0.15887466468743347 		Uiso   ? 		O 		-0.65870
O 1.0  		0.5952829506343058 		0.43566986940506924  0.15887466468743347 		Uiso   ? 		O 		-0.65870
O 1.0  		0.5952829506343057 		0.9357151215123217  0.15887466468743347 		Uiso   ? 		O 		-0.65870
O 1.0  		0.345354994261124 		0.1857419130318874  0.15887466468743347 		Uiso   ? 		O 		-0.65870
O 1.0  		0.09542703788794213 		0.43566986940506924  0.15887466468743347 		Uiso   ? 		O 		-0.65870
O 1.0  		0.8454002463683764 		0.6857871651391398  0.15887466468743347 		Uiso   ? 		O 		-0.65870
O 1.0  		0.8436961921203775 		0.18555257367099862  0.48305038499347747 		Uiso   ? 		O 		-0.63870
O 1.0  		0.34365094001312496 		0.685597825778251  0.48305038499347747 		Uiso   ? 		O 		-0.63870
O 1.0  		0.09353364427905436 		0.9355257821514329  0.48305038499347747 		Uiso   ? 		O 		-0.63870
O 1.0  		0.5935788963863068 		0.4354805300441804  0.48305038499347747 		Uiso   ? 		O 		-0.63870
O 1.0  		0.5935788963863067 		0.9355257821514329  0.48305038499347747 		Uiso   ? 		O 		-0.63870
O 1.0  		0.343650940013125 		0.18555257367099862  0.48305038499347747 		Uiso   ? 		O 		-0.63870
O 1.0  		0.09353364427905439 		0.4354805300441804  0.48305038499347747 		Uiso   ? 		O 		-0.63870
O 1.0  		0.8436961921203775 		0.685597825778251  0.48305038499347747 		Uiso   ? 		O 		-0.63870
O 1.0  		0.8427494953159335 		0.18460587686655475  0.8074046161587208 		Uiso   ? 		O 		-0.65737
O 1.0  		0.3427042432086811 		0.6846511289738072  0.8074046161587208 		Uiso   ? 		O 		-0.65737
O 1.0  		0.09277628683549925 		0.934579085346989  0.8074046161587208 		Uiso   ? 		O 		-0.65737
O 1.0  		0.592632199581863 		0.4345338332397366  0.8074046161587208 		Uiso   ? 		O 		-0.65737
O 1.0  		0.5926321995818629 		0.934579085346989  0.8074046161587208 		Uiso   ? 		O 		-0.65737
O 1.0  		0.34270424320868115 		0.18460587686655475  0.8074046161587208 		Uiso   ? 		O 		-0.65737
O 1.0  		0.09277628683549928 		0.4345338332397366  0.8074046161587208 		Uiso   ? 		O 		-0.65737
O 1.0  		0.8427494953159335 		0.6846511289738072  0.8074046161587208 		Uiso   ? 		O 		-0.65737
O 1.0  		0.9364724789558767 		0.40537557166286536  0.16155232757542393 		Uiso   ? 		O 		-0.65104
O 1.0  		0.43661656620951306 		0.9054208237701178  0.16155232757542393 		Uiso   ? 		O 		-0.65104
O 1.0  		0.18649927047544249 		0.15544761528968354  0.16155232757542393 		Uiso   ? 		O 		-0.65104
O 1.0  		0.6865445225826949 		0.6553035280360472  0.16155232757542393 		Uiso   ? 		O 		-0.65104
O 1.0  		0.6865445225826949 		0.15544761528968354  0.16155232757542393 		Uiso   ? 		O 		-0.65104
O 1.0  		0.4366165662095131 		0.40537557166286536  0.16155232757542393 		Uiso   ? 		O 		-0.65104
O 1.0  		0.18649927047544246 		0.6553035280360472  0.16155232757542393 		Uiso   ? 		O 		-0.65104
O 1.0  		0.9364724789558767 		0.9054208237701178  0.16155232757542393 		Uiso   ? 		O 		-0.65104
O 1.0  		0.9355257821514329 		0.40632226846730923  0.488227199910259 		Uiso   ? 		O 		-0.64179
O 1.0  		0.4356698694050692 		0.9063675205745617  0.488227199910259 		Uiso   ? 		O 		-0.64179
O 1.0  		0.18555257367099862 		0.1563943120941274  0.488227199910259 		Uiso   ? 		O 		-0.64179
O 1.0  		0.685597825778251 		0.6562502248404911  0.488227199910259 		Uiso   ? 		O 		-0.64179
O 1.0  		0.685597825778251 		0.1563943120941274  0.488227199910259 		Uiso   ? 		O 		-0.64179
O 1.0  		0.43566986940506924 		0.40632226846730923  0.488227199910259 		Uiso   ? 		O 		-0.64179
O 1.0  		0.1855525736709986 		0.6562502248404911  0.488227199910259 		Uiso   ? 		O 		-0.64179
O 1.0  		0.9355257821514329 		0.9063675205745617  0.488227199910259 		Uiso   ? 		O 		-0.64179
O 1.0  		0.933821727903434 		0.40821566207619703  0.8074046161587208 		Uiso   ? 		O 		-0.64789
O 1.0  		0.43377647579618145 		0.9082609141834493  0.8074046161587208 		Uiso   ? 		O 		-0.64789
O 1.0  		0.18365918006211088 		0.15828770570301515  0.8074046161587208 		Uiso   ? 		O 		-0.64789
O 1.0  		0.6837044321693634 		0.6581436184493789  0.8074046161587208 		Uiso   ? 		O 		-0.64789
O 1.0  		0.6837044321693634 		0.15828770570301515  0.8074046161587208 		Uiso   ? 		O 		-0.64789
O 1.0  		0.4337764757961815 		0.40821566207619703  0.8074046161587208 		Uiso   ? 		O 		-0.64789
O 1.0  		0.18365918006211085 		0.6581436184493789  0.8074046161587208 		Uiso   ? 		O 		-0.64789
O 1.0  		0.9338217279034339 		0.9082609141834493  0.8074046161587208 		Uiso   ? 		O 		-0.64789
O 1.0  		0.20088906190298933 		0.20126774062476688  0.1392384701755035 		Uiso   ? 		O 		-1.00338
O 1.0  		0.7009343140102418 		0.7013129927320193  0.1392384701755035 		Uiso   ? 		O 		-1.00338
O 1.0  		0.45100635763705993 		0.9512409491052012  0.1392384701755035 		Uiso   ? 		O 		-1.00338
O 1.0  		0.9510516097443124 		0.4511956969979487  0.1392384701755035 		Uiso   ? 		O 		-1.00338
O 1.0  		0.9510516097443122 		0.9512409491052012  0.1392384701755035 		Uiso   ? 		O 		-1.00338
O 1.0  		0.7009343140102418 		0.20126774062476688  0.1392384701755035 		Uiso   ? 		O 		-1.00338
O 1.0  		0.45100635763706 		0.4511956969979487  0.1392384701755035 		Uiso   ? 		O 		-1.00338
O 1.0  		0.20088906190298927 		0.7013129927320193  0.1392384701755035 		Uiso   ? 		O 		-1.00338
O 1.0  		0.200321043820323 		0.200321043820323  0.4637712121999462 		Uiso   ? 		O 		-0.98766
O 1.0  		0.7003662959275754 		0.7003662959275754  0.4637712121999462 		Uiso   ? 		O 		-0.98766
O 1.0  		0.45024900019350483 		0.9502942523007573  0.4637712121999462 		Uiso   ? 		O 		-0.98766
O 1.0  		0.9502942523007573 		0.4502490001935049  0.4637712121999462 		Uiso   ? 		O 		-0.98766
O 1.0  		0.9502942523007571 		0.9502942523007573  0.4637712121999462 		Uiso   ? 		O 		-0.98766
O 1.0  		0.7003662959275754 		0.200321043820323  0.4637712121999462 		Uiso   ? 		O 		-0.98766
O 1.0  		0.4502490001935049 		0.4502490001935049  0.4637712121999462 		Uiso   ? 		O 		-0.98766
O 1.0  		0.20032104382032295 		0.7003662959275754  0.4637712121999462 		Uiso   ? 		O 		-0.98766
O 1.0  		0.19937434701587914 		0.20316113423365462  0.7866973564915947 		Uiso   ? 		O 		-0.98800
O 1.0  		0.6994195991231316 		0.7030170469800183  0.7866973564915947 		Uiso   ? 		O 		-0.98800
O 1.0  		0.44930230338906096 		0.9531343427140888  0.7866973564915947 		Uiso   ? 		O 		-0.98800
O 1.0  		0.9493475554963134 		0.4530890906068364  0.7866973564915947 		Uiso   ? 		O 		-0.98800
O 1.0  		0.9493475554963133 		0.9531343427140888  0.7866973564915947 		Uiso   ? 		O 		-0.98800
O 1.0  		0.6994195991231316 		0.20316113423365462  0.7866973564915947 		Uiso   ? 		O 		-0.98800
O 1.0  		0.449302303389061 		0.4530890906068364  0.7866973564915947 		Uiso   ? 		O 		-0.98800
O 1.0  		0.19937434701587908 		0.7030170469800183  0.7866973564915947 		Uiso   ? 		O 		-0.98800
O 1.0  		0.8094257677995094 		0.2508746531776257  0.15905317554663284 		Uiso   ? 		O 		-1.02415
O 1.0  		0.30938051569225683 		0.7509199052848782  0.15905317554663284 		Uiso   ? 		O 		-1.02415
O 1.0  		0.0592632199581863 		0.0009466968044438706  0.15905317554663284 		Uiso   ? 		O 		-1.02415
O 1.0  		0.5593084720654388 		0.5008026095508076  0.15905317554663284 		Uiso   ? 		O 		-1.02415
O 1.0  		0.5593084720654388 		0.0009466968044438706  0.15905317554663284 		Uiso   ? 		O 		-1.02415
O 1.0  		0.3093805156922569 		0.2508746531776257  0.15905317554663284 		Uiso   ? 		O 		-1.02415
O 1.0  		0.05926321995818627 		0.5008026095508076  0.15905317554663284 		Uiso   ? 		O 		-1.02415
O 1.0  		0.8094257677995094 		0.7509199052848782  0.15905317554663284 		Uiso   ? 		O 		-1.02415
O 1.0  		0.8075323741906215 		0.2493599382905155  0.48572804788146795 		Uiso   ? 		O 		-0.99476
O 1.0  		0.30748712208336915 		0.7492158510368792  0.48572804788146795 		Uiso   ? 		O 		-0.99476
O 1.0  		0.057559165710187266 		0.9993331467709496  0.48572804788146795 		Uiso   ? 		O 		-0.99476
O 1.0  		0.557415078456551 		0.49928789466369733  0.48572804788146795 		Uiso   ? 		O 		-0.99476
O 1.0  		0.5574150784565509 		0.9993331467709496  0.48572804788146795 		Uiso   ? 		O 		-0.99476
O 1.0  		0.3074871220833692 		0.2493599382905155  0.48572804788146795 		Uiso   ? 		O 		-0.99476
O 1.0  		0.0575591657101873 		0.49928789466369733  0.48572804788146795 		Uiso   ? 		O 		-0.99476
O 1.0  		0.8075323741906215 		0.7492158510368792  0.48572804788146795 		Uiso   ? 		O 		-0.99476
O 1.0  		0.8094257677995094 		0.24879192020784918  0.8125814310755023 		Uiso   ? 		O 		-0.98307
O 1.0  		0.30938051569225683 		0.7488371723151016  0.8125814310755023 		Uiso   ? 		O 		-0.98307
O 1.0  		0.05926321995818624 		0.9987651286882835  0.8125814310755023 		Uiso   ? 		O 		-0.98307
O 1.0  		0.5593084720654388 		0.498719876581031  0.8125814310755023 		Uiso   ? 		O 		-0.98307
O 1.0  		0.5593084720654387 		0.9987651286882835  0.8125814310755023 		Uiso   ? 		O 		-0.98307
O 1.0  		0.3093805156922569 		0.24879192020784918  0.8125814310755023 		Uiso   ? 		O 		-0.98307
O 1.0  		0.05926321995818627 		0.498719876581031  0.8125814310755023 		Uiso   ? 		O 		-0.98307
O 1.0  		0.8094257677995094 		0.7488371723151016  0.8125814310755023 		Uiso   ? 		O 		-0.98307
O 1.0  		0.09466968044438705 		0.2309940202843044  0.29686355884854143 		Uiso   ? 		O 		-0.64248
O 1.0  		0.5947149325516395 		0.7310392723915569  0.29686355884854143 		Uiso   ? 		O 		-0.64248
O 1.0  		0.34459763681756883 		0.9809672287647387  0.29686355884854143 		Uiso   ? 		O 		-0.64248
O 1.0  		0.8446428889248214 		0.48092197665748626  0.29686355884854143 		Uiso   ? 		O 		-0.64248
O 1.0  		0.8446428889248213 		0.9809672287647387  0.29686355884854143 		Uiso   ? 		O 		-0.64248
O 1.0  		0.5947149325516395 		0.2309940202843044  0.29686355884854143 		Uiso   ? 		O 		-0.64248
O 1.0  		0.34459763681756883 		0.48092197665748626  0.29686355884854143 		Uiso   ? 		O 		-0.64248
O 1.0  		0.09466968044438702 		0.7310392723915569  0.29686355884854143 		Uiso   ? 		O 		-0.64248
O 1.0  		0.09561637724883092 		0.23061534156252686  0.6210392791545855 		Uiso   ? 		O 		-0.63945
O 1.0  		0.5956616293560834 		0.7304712543088906  0.6210392791545855 		Uiso   ? 		O 		-0.63945
O 1.0  		0.3455443336220127 		0.9805885500429612  0.6210392791545855 		Uiso   ? 		O 		-0.63945
O 1.0  		0.8455895857292652 		0.48054329793570866  0.6210392791545855 		Uiso   ? 		O 		-0.63945
O 1.0  		0.8455895857292651 		0.9805885500429612  0.6210392791545855 		Uiso   ? 		O 		-0.63945
O 1.0  		0.5956616293560834 		0.23061534156252686  0.6210392791545855 		Uiso   ? 		O 		-0.63945
O 1.0  		0.3455443336220127 		0.48054329793570866  0.6210392791545855 		Uiso   ? 		O 		-0.63945
O 1.0  		0.09561637724883089 		0.7304712543088906  0.6210392791545855 		Uiso   ? 		O 		-0.63945
O 1.0  		0.9764230841034081 		0.1563943120941274  0.29668504798934203 		Uiso   ? 		O 		-0.62957
O 1.0  		0.47637783199615563 		0.6564395642013798  0.29668504798934203 		Uiso   ? 		O 		-0.62957
O 1.0  		0.22644987562297378 		0.9063675205745617  0.29668504798934203 		Uiso   ? 		O 		-0.62957
O 1.0  		0.7264951277302263 		0.40632226846730923  0.29668504798934203 		Uiso   ? 		O 		-0.62957
O 1.0  		0.7264951277302263 		0.9063675205745617  0.29668504798934203 		Uiso   ? 		O 		-0.62957
O 1.0  		0.4763778319961557 		0.1563943120941274  0.29668504798934203 		Uiso   ? 		O 		-0.62957
O 1.0  		0.2264498756229738 		0.40632226846730923  0.29668504798934203 		Uiso   ? 		O 		-0.62957
O 1.0  		0.9764230841034081 		0.6564395642013798  0.29668504798934203 		Uiso   ? 		O 		-0.62957
O 1.0  		0.9764230841034081 		0.15601563337234986  0.6210392791545855 		Uiso   ? 		O 		-0.63102
O 1.0  		0.47637783199615563 		0.6560608854796023  0.6210392791545855 		Uiso   ? 		O 		-0.63102
O 1.0  		0.22644987562297378 		0.9061781812136728  0.6210392791545855 		Uiso   ? 		O 		-0.63102
O 1.0  		0.7264951277302263 		0.40613292910642046  0.6210392791545855 		Uiso   ? 		O 		-0.63102
O 1.0  		0.7264951277302263 		0.9061781812136728  0.6210392791545855 		Uiso   ? 		O 		-0.63102
O 1.0  		0.4763778319961557 		0.15601563337234986  0.6210392791545855 		Uiso   ? 		O 		-0.63102
O 1.0  		0.2264498756229738 		0.40613292910642046  0.6210392791545855 		Uiso   ? 		O 		-0.63102
O 1.0  		0.9764230841034081 		0.6560608854796023  0.6210392791545855 		Uiso   ? 		O 		-0.63102
O 1.0  		0.904474126965674 		0.27321669776250107  0.34863170801635684 		Uiso   ? 		O 		-0.63344
O 1.0  		0.4046182142193102 		0.7732619498697534  0.34863170801635684 		Uiso   ? 		O 		-0.63344
O 1.0  		0.15450091848523967 		0.023288741389319214  0.34863170801635684 		Uiso   ? 		O 		-0.63344
O 1.0  		0.6545461705924921 		0.5233339934965716  0.34863170801635684 		Uiso   ? 		O 		-0.63344
O 1.0  		0.6545461705924921 		0.023288741389319214  0.34863170801635684 		Uiso   ? 		O 		-0.63344
O 1.0  		0.40461821421931027 		0.27321669776250107  0.34863170801635684 		Uiso   ? 		O 		-0.63344
O 1.0  		0.15450091848523964 		0.5233339934965716  0.34863170801635684 		Uiso   ? 		O 		-0.63344
O 1.0  		0.904474126965674 		0.7732619498697534  0.34863170801635684 		Uiso   ? 		O 		-0.63344
O 1.0  		0.9042847876047851 		0.27321669776250107  0.6720933848856034 		Uiso   ? 		O 		-0.63402
O 1.0  		0.4042395354975326 		0.7732619498697534  0.6720933848856034 		Uiso   ? 		O 		-0.63402
O 1.0  		0.1543115791243509 		0.023288741389319214  0.6720933848856034 		Uiso   ? 		O 		-0.63402
O 1.0  		0.6543568312316034 		0.5233339934965716  0.6720933848856034 		Uiso   ? 		O 		-0.63402
O 1.0  		0.6543568312316034 		0.023288741389319214  0.6720933848856034 		Uiso   ? 		O 		-0.63402
O 1.0  		0.40423953549753266 		0.27321669776250107  0.6720933848856034 		Uiso   ? 		O 		-0.63402
O 1.0  		0.15431157912435087 		0.5233339934965716  0.6720933848856034 		Uiso   ? 		O 		-0.63402
O 1.0  		0.9042847876047851 		0.7732619498697534  0.6720933848856034 		Uiso   ? 		O 		-0.63402
O 1.0  		0.018555257367099842 		0.3464910304264566  0.34898872973475553 		Uiso   ? 		O 		-0.64605
O 1.0  		0.5184111701134635 		0.846536282533709  0.34898872973475553 		Uiso   ? 		O 		-0.64605
O 1.0  		0.26848321374028167 		0.0965630740532748  0.34898872973475553 		Uiso   ? 		O 		-0.64605
O 1.0  		0.7685284658475342 		0.5964189867996385  0.34898872973475553 		Uiso   ? 		O 		-0.64605
O 1.0  		0.7685284658475342 		0.0965630740532748  0.34898872973475553 		Uiso   ? 		O 		-0.64605
O 1.0  		0.5184111701134635 		0.3464910304264566  0.34898872973475553 		Uiso   ? 		O 		-0.64605
O 1.0  		0.2684832137402816 		0.5964189867996385  0.34898872973475553 		Uiso   ? 		O 		-0.64605
O 1.0  		0.01855525736709981 		0.846536282533709  0.34898872973475553 		Uiso   ? 		O 		-0.64605
O 1.0  		0.018555257367099842 		0.3445976368175689  0.6744140260551951 		Uiso   ? 		O 		-0.64896
O 1.0  		0.5184111701134635 		0.8446428889248214  0.6744140260551951 		Uiso   ? 		O 		-0.64896
O 1.0  		0.26848321374028167 		0.09466968044438706  0.6744140260551951 		Uiso   ? 		O 		-0.64896
O 1.0  		0.7685284658475342 		0.5945255931907507  0.6744140260551951 		Uiso   ? 		O 		-0.64896
O 1.0  		0.7685284658475342 		0.09466968044438706  0.6744140260551951 		Uiso   ? 		O 		-0.64896
O 1.0  		0.5184111701134635 		0.3445976368175689  0.6744140260551951 		Uiso   ? 		O 		-0.64896
O 1.0  		0.2684832137402816 		0.5945255931907507  0.6744140260551951 		Uiso   ? 		O 		-0.64896
O 1.0  		0.01855525736709981 		0.8446428889248214  0.6744140260551951 		Uiso   ? 		O 		-0.64896
O 1.0  		0.0935336442790544 		0.1857419130318874  0.32149805741805354 		Uiso   ? 		O 		-0.63614
O 1.0  		0.5935788963863068 		0.6857871651391398  0.32149805741805354 		Uiso   ? 		O 		-0.63614
O 1.0  		0.34365094001312496 		0.9357151215123217  0.32149805741805354 		Uiso   ? 		O 		-0.63614
O 1.0  		0.8435068527594887 		0.43566986940506924  0.32149805741805354 		Uiso   ? 		O 		-0.63614
O 1.0  		0.8435068527594886 		0.9357151215123217  0.32149805741805354 		Uiso   ? 		O 		-0.63614
O 1.0  		0.5935788963863068 		0.1857419130318874  0.32149805741805354 		Uiso   ? 		O 		-0.63614
O 1.0  		0.343650940013125 		0.43566986940506924  0.32149805741805354 		Uiso   ? 		O 		-0.63614
O 1.0  		0.09353364427905438 		0.6857871651391398  0.32149805741805354 		Uiso   ? 		O 		-0.63614
O 1.0  		0.09372298363994318 		0.18555257367099862  0.6446027125689014 		Uiso   ? 		O 		-0.64014
O 1.0  		0.5937682357471956 		0.685597825778251  0.6446027125689014 		Uiso   ? 		O 		-0.64014
O 1.0  		0.34365094001312496 		0.9355257821514329  0.6446027125689014 		Uiso   ? 		O 		-0.64014
O 1.0  		0.8436961921203775 		0.4354805300441804  0.6446027125689014 		Uiso   ? 		O 		-0.64014
O 1.0  		0.8436961921203774 		0.9355257821514329  0.6446027125689014 		Uiso   ? 		O 		-0.64014
O 1.0  		0.5937682357471956 		0.18555257367099862  0.6446027125689014 		Uiso   ? 		O 		-0.64014
O 1.0  		0.343650940013125 		0.4354805300441804  0.6446027125689014 		Uiso   ? 		O 		-0.64014
O 1.0  		0.09372298363994315 		0.685597825778251  0.6446027125689014 		Uiso   ? 		O 		-0.64014
O 1.0  		0.9357151215123217 		0.1563943120941274  0.32685338319403445 		Uiso   ? 		O 		-0.63942
O 1.0  		0.4356698694050692 		0.6564395642013798  0.32685338319403445 		Uiso   ? 		O 		-0.63942
O 1.0  		0.18574191303188733 		0.9063675205745617  0.32685338319403445 		Uiso   ? 		O 		-0.63942
O 1.0  		0.6857871651391398 		0.40632226846730923  0.32685338319403445 		Uiso   ? 		O 		-0.63942
O 1.0  		0.6857871651391398 		0.9063675205745617  0.32685338319403445 		Uiso   ? 		O 		-0.63942
O 1.0  		0.43566986940506924 		0.1563943120941274  0.32685338319403445 		Uiso   ? 		O 		-0.63942
O 1.0  		0.18574191303188736 		0.40632226846730923  0.32685338319403445 		Uiso   ? 		O 		-0.63942
O 1.0  		0.9357151215123217 		0.6564395642013798  0.32685338319403445 		Uiso   ? 		O 		-0.63942
O 1.0  		0.9355257821514329 		0.15620497273323863  0.6510291035000785 		Uiso   ? 		O 		-0.64166
O 1.0  		0.4356698694050692 		0.6562502248404911  0.6510291035000785 		Uiso   ? 		O 		-0.64166
O 1.0  		0.18555257367099856 		0.9061781812136728  0.6510291035000785 		Uiso   ? 		O 		-0.64166
O 1.0  		0.685597825778251 		0.40632226846730923  0.6510291035000785 		Uiso   ? 		O 		-0.64166
O 1.0  		0.685597825778251 		0.9061781812136728  0.6510291035000785 		Uiso   ? 		O 		-0.64166
O 1.0  		0.43566986940506924 		0.15620497273323863  0.6510291035000785 		Uiso   ? 		O 		-0.64166
O 1.0  		0.1855525736709986 		0.40632226846730923  0.6510291035000785 		Uiso   ? 		O 		-0.64166
O 1.0  		0.9355257821514329 		0.6562502248404911  0.6510291035000785 		Uiso   ? 		O 		-0.64166
O 1.0  		0.047713518943971064 		0.20221443742921077  0.30221888462452234 		Uiso   ? 		O 		-0.94375
O 1.0  		0.5475694316903347 		0.7020703501755744  0.30221888462452234 		Uiso   ? 		O 		-0.94375
O 1.0  		0.29764147531715285 		0.952187645909645  0.30221888462452234 		Uiso   ? 		O 		-0.94375
O 1.0  		0.7976867274244054 		0.4521423938023926  0.30221888462452234 		Uiso   ? 		O 		-0.94375
O 1.0  		0.7976867274244053 		0.952187645909645  0.30221888462452234 		Uiso   ? 		O 		-0.94375
O 1.0  		0.5475694316903347 		0.20221443742921077  0.30221888462452234 		Uiso   ? 		O 		-0.94375
O 1.0  		0.2976414753171529 		0.4521423938023926  0.30221888462452234 		Uiso   ? 		O 		-0.94375
O 1.0  		0.04771351894397104 		0.7020703501755744  0.30221888462452234 		Uiso   ? 		O 		-0.94375
O 1.0  		0.047713518943971064 		0.20221443742921077  0.626216094071367 		Uiso   ? 		O 		-0.93984
O 1.0  		0.5475694316903347 		0.7020703501755744  0.626216094071367 		Uiso   ? 		O 		-0.93984
O 1.0  		0.29764147531715285 		0.952187645909645  0.626216094071367 		Uiso   ? 		O 		-0.93984
O 1.0  		0.7976867274244054 		0.4521423938023926  0.626216094071367 		Uiso   ? 		O 		-0.93984
O 1.0  		0.7976867274244053 		0.952187645909645  0.626216094071367 		Uiso   ? 		O 		-0.93984
O 1.0  		0.5475694316903347 		0.20221443742921077  0.626216094071367 		Uiso   ? 		O 		-0.93984
O 1.0  		0.2976414753171529 		0.4521423938023926  0.626216094071367 		Uiso   ? 		O 		-0.93984
O 1.0  		0.04771351894397104 		0.7020703501755744  0.626216094071367 		Uiso   ? 		O 		-0.93984
O 1.0  		0.9502942523007573 		0.20013170445943423  0.30221888462452234 		Uiso   ? 		O 		-0.98540
O 1.0  		0.45024900019350483 		0.7001769565666867  0.30221888462452234 		Uiso   ? 		O 		-0.98540
O 1.0  		0.20032104382032295 		0.9501049129398684  0.30221888462452234 		Uiso   ? 		O 		-0.98540
O 1.0  		0.7003662959275754 		0.4502490001935049  0.30221888462452234 		Uiso   ? 		O 		-0.98540
O 1.0  		0.7003662959275753 		0.9501049129398684  0.30221888462452234 		Uiso   ? 		O 		-0.98540
O 1.0  		0.4502490001935049 		0.20013170445943423  0.30221888462452234 		Uiso   ? 		O 		-0.98540
O 1.0  		0.20032104382032298 		0.4502490001935049  0.30221888462452234 		Uiso   ? 		O 		-0.98540
O 1.0  		0.9502942523007573 		0.7001769565666867  0.30221888462452234 		Uiso   ? 		O 		-0.98540
O 1.0  		0.9501049129398684 		0.20013170445943423  0.6258590723529682 		Uiso   ? 		O 		-0.98561
O 1.0  		0.45005966083261595 		0.7001769565666867  0.6258590723529682 		Uiso   ? 		O 		-0.98561
O 1.0  		0.20013170445943418 		0.9501049129398684  0.6258590723529682 		Uiso   ? 		O 		-0.98561
O 1.0  		0.6999876172057979 		0.4502490001935049  0.6258590723529682 		Uiso   ? 		O 		-0.98561
O 1.0  		0.6999876172057978 		0.9501049129398684  0.6258590723529682 		Uiso   ? 		O 		-0.98561
O 1.0  		0.450059660832616 		0.20013170445943423  0.6258590723529682 		Uiso   ? 		O 		-0.98561
O 1.0  		0.2001317044594342 		0.4502490001935049  0.6258590723529682 		Uiso   ? 		O 		-0.98561
O 1.0  		0.9501049129398684 		0.7001769565666867  0.6258590723529682 		Uiso   ? 		O 		-0.98561
O 1.0  		0.05699114762752099 		0.24973861701229305  0.324175720306044 		Uiso   ? 		O 		-0.99270
O 1.0  		0.5570363997347735 		0.7497838691195455  0.324175720306044 		Uiso   ? 		O 		-0.99270
O 1.0  		0.3071084433615916 		0.999901164853616  0.324175720306044 		Uiso   ? 		O 		-0.99270
O 1.0  		0.8069643561079551 		0.4998559127463637  0.324175720306044 		Uiso   ? 		O 		-0.99270
O 1.0  		0.806964356107955 		0.999901164853616  0.324175720306044 		Uiso   ? 		O 		-0.99270
O 1.0  		0.5570363997347735 		0.24973861701229305  0.324175720306044 		Uiso   ? 		O 		-0.99270
O 1.0  		0.3071084433615916 		0.4998559127463637  0.324175720306044 		Uiso   ? 		O 		-0.99270
O 1.0  		0.05699114762752096 		0.7497838691195455  0.324175720306044 		Uiso   ? 		O 		-0.99270
O 1.0  		0.057559165710187314 		0.2493599382905155  0.6472803754568919 		Uiso   ? 		O 		-0.99344
O 1.0  		0.5576044178174397 		0.7492158510368792  0.6472803754568919 		Uiso   ? 		O 		-0.99344
O 1.0  		0.30748712208336915 		0.9993331467709496  0.6472803754568919 		Uiso   ? 		O 		-0.99344
O 1.0  		0.8075323741906215 		0.49928789466369733  0.6472803754568919 		Uiso   ? 		O 		-0.99344
O 1.0  		0.8075323741906214 		0.9993331467709496  0.6472803754568919 		Uiso   ? 		O 		-0.99344
O 1.0  		0.5576044178174397 		0.2493599382905155  0.6472803754568919 		Uiso   ? 		O 		-0.99344
O 1.0  		0.30748712208336915 		0.49928789466369733  0.6472803754568919 		Uiso   ? 		O 		-0.99344
O 1.0  		0.05755916571018728 		0.7492158510368792  0.6472803754568919 		Uiso   ? 		O 		-0.99344
O 1.0  		0.1562049727332386 		0.2717019828753909  0.1342401661179213 		Uiso   ? 		O 		-0.92044
O 1.0  		0.6562502248404911 		0.7715578956217546  0.1342401661179213 		Uiso   ? 		O 		-0.92044
O 1.0  		0.40632226846730923 		0.02158468714132025  0.1342401661179213 		Uiso   ? 		O 		-0.92044
O 1.0  		0.9061781812136728 		0.5216299392485727  0.1342401661179213 		Uiso   ? 		O 		-0.92044
O 1.0  		0.9061781812136728 		0.02158468714132025  0.1342401661179213 		Uiso   ? 		O 		-0.92044
O 1.0  		0.6562502248404911 		0.2717019828753909  0.1342401661179213 		Uiso   ? 		O 		-0.92044
O 1.0  		0.4063222684673092 		0.5216299392485727  0.1342401661179213 		Uiso   ? 		O 		-0.92044
O 1.0  		0.15620497273323858 		0.7715578956217546  0.1342401661179213 		Uiso   ? 		O 		-0.92044
O 1.0  		0.15601563337234983 		0.2694299105447256  0.458237375564766 		Uiso   ? 		O 		-0.63615
O 1.0  		0.6560608854796023 		0.7692858232910892  0.458237375564766 		Uiso   ? 		O 		-0.63615
O 1.0  		0.40613292910642046 		0.01931261481065496  0.458237375564766 		Uiso   ? 		O 		-0.63615
O 1.0  		0.9061781812136728 		0.5193578669179074  0.458237375564766 		Uiso   ? 		O 		-0.63615
O 1.0  		0.9061781812136728 		0.01931261481065496  0.458237375564766 		Uiso   ? 		O 		-0.63615
O 1.0  		0.6560608854796023 		0.2694299105447256  0.458237375564766 		Uiso   ? 		O 		-0.63615
O 1.0  		0.4061329291064204 		0.5193578669179074  0.458237375564766 		Uiso   ? 		O 		-0.63615
O 1.0  		0.1560156333723498 		0.7692858232910892  0.458237375564766 		Uiso   ? 		O 		-0.63615
O 1.0  		0.1569623301767937 		0.27227000095805715  0.7825916067300094 		Uiso   ? 		O 		-0.64709
O 1.0  		0.6568182429231574 		0.7723152530653096  0.7825916067300094 		Uiso   ? 		O 		-0.64709
O 1.0  		0.40689028654997556 		0.022342044584875344  0.7825916067300094 		Uiso   ? 		O 		-0.64709
O 1.0  		0.906935538657228 		0.5223872966921278  0.7825916067300094 		Uiso   ? 		O 		-0.64709
O 1.0  		0.906935538657228 		0.022342044584875344  0.7825916067300094 		Uiso   ? 		O 		-0.64709
O 1.0  		0.6568182429231574 		0.27227000095805715  0.7825916067300094 		Uiso   ? 		O 		-0.64709
O 1.0  		0.4068902865499755 		0.5223872966921278  0.7825916067300094 		Uiso   ? 		O 		-0.64709
O 1.0  		0.15696233017679367 		0.7723152530653096  0.7825916067300094 		Uiso   ? 		O 		-0.64709
O 1.0  		0.02650751052442837 		0.09485901980527583  0.13299059010352576 		Uiso   ? 		O 		-0.82685
O 1.0  		0.5265527626316808 		0.5947149325516395  0.13299059010352576 		Uiso   ? 		O 		-0.82685
O 1.0  		0.2764354668976101 		0.84483222828571  0.13299059010352576 		Uiso   ? 		O 		-0.82685
O 1.0  		0.7764807190048626 		0.34478697617845766  0.13299059010352576 		Uiso   ? 		O 		-0.82685
O 1.0  		0.7764807190048626 		0.84483222828571  0.13299059010352576 		Uiso   ? 		O 		-0.82685
O 1.0  		0.5265527626316808 		0.09485901980527583  0.13299059010352576 		Uiso   ? 		O 		-0.82685
O 1.0  		0.27643546689761017 		0.34478697617845766  0.13299059010352576 		Uiso   ? 		O 		-0.82685
O 1.0  		0.026507510524428343 		0.5947149325516395  0.13299059010352576 		Uiso   ? 		O 		-0.82685
O 1.0  		0.02366742011109676 		0.09353364427905442  0.45841588642396536 		Uiso   ? 		O 		-0.63031
O 1.0  		0.5237126722183492 		0.5935788963863068  0.45841588642396536 		Uiso   ? 		O 		-0.63031
O 1.0  		0.2737847158451673 		0.8435068527594887  0.45841588642396536 		Uiso   ? 		O 		-0.63031
O 1.0  		0.773640628591531 		0.343650940013125  0.45841588642396536 		Uiso   ? 		O 		-0.63031
O 1.0  		0.773640628591531 		0.8435068527594887  0.45841588642396536 		Uiso   ? 		O 		-0.63031
O 1.0  		0.5237126722183492 		0.09353364427905442  0.45841588642396536 		Uiso   ? 		O 		-0.63031
O 1.0  		0.27378471584516734 		0.343650940013125  0.45841588642396536 		Uiso   ? 		O 		-0.63031
O 1.0  		0.02366742011109673 		0.5935788963863068  0.45841588642396536 		Uiso   ? 		O 		-0.63031
O 1.0  		0.024424777554651854 		0.09277628683549931  0.7825916067300094 		Uiso   ? 		O 		-0.64042
O 1.0  		0.5244700296619043 		0.5928215389427517  0.7825916067300094 		Uiso   ? 		O 		-0.64042
O 1.0  		0.2745420732887224 		0.8427494953159335  0.7825916067300094 		Uiso   ? 		O 		-0.64042
O 1.0  		0.774587325395975 		0.34270424320868115  0.7825916067300094 		Uiso   ? 		O 		-0.64042
O 1.0  		0.774587325395975 		0.8427494953159335  0.7825916067300094 		Uiso   ? 		O 		-0.64042
O 1.0  		0.5244700296619043 		0.09277628683549931  0.7825916067300094 		Uiso   ? 		O 		-0.64042
O 1.0  		0.27454207328872243 		0.34270424320868115  0.7825916067300094 		Uiso   ? 		O 		-0.64042
O 1.0  		0.024424777554651826 		0.5928215389427517  0.7825916067300094 		Uiso   ? 		O 		-0.64042
O 1.0  		0.8455895857292652 		0.22663921498386264  0.18618682614493606 		Uiso   ? 		O 		-0.62971
O 1.0  		0.3455443336220127 		0.7266844670911151  0.18618682614493606 		Uiso   ? 		O 		-0.62971
O 1.0  		0.09561637724883087 		0.976612423464297  0.18618682614493606 		Uiso   ? 		O 		-0.62971
O 1.0  		0.5956616293560834 		0.4767565107179332  0.18618682614493606 		Uiso   ? 		O 		-0.62971
O 1.0  		0.5956616293560832 		0.976612423464297  0.18618682614493606 		Uiso   ? 		O 		-0.62971
O 1.0  		0.34554433362201276 		0.22663921498386264  0.18618682614493606 		Uiso   ? 		O 		-0.62971
O 1.0  		0.0956163772488309 		0.4767565107179332  0.18618682614493606 		Uiso   ? 		O 		-0.62971
O 1.0  		0.8455895857292652 		0.7266844670911151  0.18618682614493606 		Uiso   ? 		O 		-0.62971
O 1.0  		0.8455895857292652 		0.22663921498386264  0.5103625464509801 		Uiso   ? 		O 		-0.63209
O 1.0  		0.3455443336220127 		0.7266844670911151  0.5103625464509801 		Uiso   ? 		O 		-0.63209
O 1.0  		0.09561637724883087 		0.976612423464297  0.5103625464509801 		Uiso   ? 		O 		-0.63209
O 1.0  		0.5956616293560834 		0.4767565107179332  0.5103625464509801 		Uiso   ? 		O 		-0.63209
O 1.0  		0.5956616293560832 		0.976612423464297  0.5103625464509801 		Uiso   ? 		O 		-0.63209
O 1.0  		0.34554433362201276 		0.22663921498386264  0.5103625464509801 		Uiso   ? 		O 		-0.63209
O 1.0  		0.0956163772488309 		0.4767565107179332  0.5103625464509801 		Uiso   ? 		O 		-0.63209
O 1.0  		0.8455895857292652 		0.7266844670911151  0.5103625464509801 		Uiso   ? 		O 		-0.63209
O 1.0  		0.84483222828571 		0.2215270522398657  0.8384655056594101 		Uiso   ? 		O 		-0.82856
O 1.0  		0.3447869761784576 		0.7215723043471182  0.8384655056594101 		Uiso   ? 		O 		-0.82856
O 1.0  		0.09485901980527578 		0.9715002607203  0.8384655056594101 		Uiso   ? 		O 		-0.82856
O 1.0  		0.5949042719125283 		0.47164434797393634  0.8384655056594101 		Uiso   ? 		O 		-0.82856
O 1.0  		0.5949042719125281 		0.9715002607203  0.8384655056594101 		Uiso   ? 		O 		-0.82856
O 1.0  		0.34478697617845766 		0.2215270522398657  0.8384655056594101 		Uiso   ? 		O 		-0.82856
O 1.0  		0.09485901980527581 		0.47164434797393634  0.8384655056594101 		Uiso   ? 		O 		-0.82856
O 1.0  		0.84483222828571 		0.7215723043471182  0.8384655056594101 		Uiso   ? 		O 		-0.82856
O 1.0  		0.9813459074865162 		0.40348217805397757  0.18725789130013223 		Uiso   ? 		O 		-0.66931
O 1.0  		0.4813006553792637 		0.9035274301612302  0.18725789130013223 		Uiso   ? 		O 		-0.66931
O 1.0  		0.2311833596451932 		0.15355422168079583  0.18725789130013223 		Uiso   ? 		O 		-0.66931
O 1.0  		0.7312286117524457 		0.6535994737880483  0.18725789130013223 		Uiso   ? 		O 		-0.66931
O 1.0  		0.7312286117524457 		0.15355422168079583  0.18725789130013223 		Uiso   ? 		O 		-0.66931
O 1.0  		0.48130065537926375 		0.40348217805397757  0.18725789130013223 		Uiso   ? 		O 		-0.66931
O 1.0  		0.23118335964519318 		0.6535994737880483  0.18725789130013223 		Uiso   ? 		O 		-0.66931
O 1.0  		0.9813459074865162 		0.9035274301612302  0.18725789130013223 		Uiso   ? 		O 		-0.66931
O 1.0  		0.9805885500429612 		0.40423953549753266  0.511790633324575 		Uiso   ? 		O 		-0.64553
O 1.0  		0.4805432979357086 		0.9042847876047851  0.511790633324575 		Uiso   ? 		O 		-0.64553
O 1.0  		0.23061534156252686 		0.15412223976346212  0.511790633324575 		Uiso   ? 		O 		-0.64553
O 1.0  		0.7306605936697793 		0.6541674918707145  0.511790633324575 		Uiso   ? 		O 		-0.64553
O 1.0  		0.7306605936697793 		0.15412223976346212  0.511790633324575 		Uiso   ? 		O 		-0.64553
O 1.0  		0.48054329793570866 		0.40423953549753266  0.511790633324575 		Uiso   ? 		O 		-0.64553
O 1.0  		0.23061534156252683 		0.6541674918707145  0.511790633324575 		Uiso   ? 		O 		-0.64553
O 1.0  		0.9805885500429612 		0.9042847876047851  0.511790633324575 		Uiso   ? 		O 		-0.64553
O 1.0  		0.9737723330509652 		0.40329283869308885  0.8372159296450147 		Uiso   ? 		O 		-0.82178
O 1.0  		0.47372708094371274 		0.9033380908003413  0.8372159296450147 		Uiso   ? 		O 		-0.82178
O 1.0  		0.223799124570531 		0.15317554295901828  0.8372159296450147 		Uiso   ? 		O 		-0.82178
O 1.0  		0.7238443766777835 		0.6532207950662707  0.8372159296450147 		Uiso   ? 		O 		-0.82178
O 1.0  		0.7238443766777835 		0.15317554295901828  0.8372159296450147 		Uiso   ? 		O 		-0.82178
O 1.0  		0.4737270809437128 		0.40329283869308885  0.8372159296450147 		Uiso   ? 		O 		-0.82178
O 1.0  		0.22379912457053097 		0.6532207950662707  0.8372159296450147 		Uiso   ? 		O 		-0.82178
O 1.0  		0.9737723330509652 		0.9033380908003413  0.8372159296450147 		Uiso   ? 		O 		-0.82178
O 1.0  		0.15734100889857125 		0.31335664227092114  0.15887466468743347 		Uiso   ? 		O 		-0.65466
O 1.0  		0.6573862610058238 		0.8134018943781737  0.15887466468743347 		Uiso   ? 		O 		-0.65466
O 1.0  		0.4072689652717531 		0.06342868589773933  0.15887466468743347 		Uiso   ? 		O 		-0.65466
O 1.0  		0.9073142173790055 		0.5634739380049918  0.15887466468743347 		Uiso   ? 		O 		-0.65466
O 1.0  		0.9073142173790055 		0.06342868589773933  0.15887466468743347 		Uiso   ? 		O 		-0.65466
O 1.0  		0.6573862610058238 		0.31335664227092114  0.15887466468743347 		Uiso   ? 		O 		-0.65466
O 1.0  		0.40726896527175305 		0.5634739380049918  0.15887466468743347 		Uiso   ? 		O 		-0.65466
O 1.0  		0.15734100889857122 		0.8134018943781737  0.15887466468743347 		Uiso   ? 		O 		-0.65466
O 1.0  		0.1569623301767937 		0.3137353209926987  0.48305038499347747 		Uiso   ? 		O 		-0.63842
O 1.0  		0.6570075822840462 		0.8137805730999511  0.48305038499347747 		Uiso   ? 		O 		-0.63842
O 1.0  		0.40707962591086433 		0.0636180252586281  0.48305038499347747 		Uiso   ? 		O 		-0.63842
O 1.0  		0.9071248780181168 		0.5636632773658805  0.48305038499347747 		Uiso   ? 		O 		-0.63842
O 1.0  		0.9071248780181168 		0.0636180252586281  0.48305038499347747 		Uiso   ? 		O 		-0.63842
O 1.0  		0.6570075822840462 		0.3137353209926987  0.48305038499347747 		Uiso   ? 		O 		-0.63842
O 1.0  		0.4070796259108643 		0.5636632773658805  0.48305038499347747 		Uiso   ? 		O 		-0.63842
O 1.0  		0.15696233017679367 		0.8137805730999511  0.48305038499347747 		Uiso   ? 		O 		-0.63842
O 1.0  		0.15828770570301512 		0.31468201779714255  0.8086541921731164 		Uiso   ? 		O 		-0.65524
O 1.0  		0.6583329578102676 		0.8145379305435062  0.8086541921731164 		Uiso   ? 		O 		-0.65524
O 1.0  		0.40821566207619703 		0.06456472206307198  0.8086541921731164 		Uiso   ? 		O 		-0.65524
O 1.0  		0.9082609141834493 		0.5646099741703244  0.8086541921731164 		Uiso   ? 		O 		-0.65524
O 1.0  		0.9082609141834493 		0.06456472206307198  0.8086541921731164 		Uiso   ? 		O 		-0.65524
O 1.0  		0.6583329578102676 		0.31468201779714255  0.8086541921731164 		Uiso   ? 		O 		-0.65524
O 1.0  		0.408215662076197 		0.5646099741703244  0.8086541921731164 		Uiso   ? 		O 		-0.65524
O 1.0  		0.1582877057030151 		0.8145379305435062  0.8086541921731164 		Uiso   ? 		O 		-0.65524
O 1.0  		0.06437538270218321 		0.09353364427905442  0.16280190358981947 		Uiso   ? 		O 		-0.62337
O 1.0  		0.5644206348094356 		0.5935788963863068  0.16280190358981947 		Uiso   ? 		O 		-0.62337
O 1.0  		0.3144926784362537 		0.8435068527594887  0.16280190358981947 		Uiso   ? 		O 		-0.62337
O 1.0  		0.8143485911826175 		0.343650940013125  0.16280190358981947 		Uiso   ? 		O 		-0.62337
O 1.0  		0.8143485911826175 		0.8435068527594887  0.16280190358981947 		Uiso   ? 		O 		-0.62337
O 1.0  		0.5644206348094356 		0.09353364427905442  0.16280190358981947 		Uiso   ? 		O 		-0.62337
O 1.0  		0.3144926784362538 		0.343650940013125  0.16280190358981947 		Uiso   ? 		O 		-0.62337
O 1.0  		0.06437538270218317 		0.5935788963863068  0.16280190358981947 		Uiso   ? 		O 		-0.62337
O 1.0  		0.06342868589773933 		0.09296562619638808  0.48840571076945843 		Uiso   ? 		O 		-0.63487
O 1.0  		0.5634739380049918 		0.5928215389427517  0.48840571076945843 		Uiso   ? 		O 		-0.63487
O 1.0  		0.31354598163180986 		0.8429388346768223  0.48840571076945843 		Uiso   ? 		O 		-0.63487
O 1.0  		0.8134018943781737 		0.3428935825695699  0.48840571076945843 		Uiso   ? 		O 		-0.63487
O 1.0  		0.8134018943781737 		0.8429388346768223  0.48840571076945843 		Uiso   ? 		O 		-0.63487
O 1.0  		0.5634739380049918 		0.09296562619638808  0.48840571076945843 		Uiso   ? 		O 		-0.63487
O 1.0  		0.3135459816318099 		0.3428935825695699  0.48840571076945843 		Uiso   ? 		O 		-0.63487
O 1.0  		0.06342868589773928 		0.5928215389427517  0.48840571076945843 		Uiso   ? 		O 		-0.63487
O 1.0  		0.06570075822840461 		0.09126157194838912  0.8086541921731164 		Uiso   ? 		O 		-0.64381
O 1.0  		0.5657460103356571 		0.5911174846947528  0.8086541921731164 		Uiso   ? 		O 		-0.64381
O 1.0  		0.31581805396247514 		0.8412347804288233  0.8086541921731164 		Uiso   ? 		O 		-0.64381
O 1.0  		0.8156739667088388 		0.34118952832157096  0.8086541921731164 		Uiso   ? 		O 		-0.64381
O 1.0  		0.8156739667088388 		0.8412347804288233  0.8086541921731164 		Uiso   ? 		O 		-0.64381
O 1.0  		0.5657460103356571 		0.09126157194838912  0.8086541921731164 		Uiso   ? 		O 		-0.64381
O 1.0  		0.3158180539624752 		0.34118952832157096  0.8086541921731164 		Uiso   ? 		O 		-0.64381
O 1.0  		0.06570075822840457 		0.5911174846947528  0.8086541921731164 		Uiso   ? 		O 		-0.64381
O 1.0  		0.9542703788794216 		0.04619880405686088  0.13905995931630413 		Uiso   ? 		O 		-0.95878
O 1.0  		0.4544144661330578 		0.5462440561641133  0.13905995931630413 		Uiso   ? 		O 		-0.95878
O 1.0  		0.2042971703989872 		0.7961720125372952  0.13905995931630413 		Uiso   ? 		O 		-0.95878
O 1.0  		0.7043424225062397 		0.2961267604300427  0.13905995931630413 		Uiso   ? 		O 		-0.95878
O 1.0  		0.7043424225062397 		0.7961720125372952  0.13905995931630413 		Uiso   ? 		O 		-0.95878
O 1.0  		0.45441446613305786 		0.04619880405686088  0.13905995931630413 		Uiso   ? 		O 		-0.95878
O 1.0  		0.20429717039898723 		0.2961267604300427  0.13905995931630413 		Uiso   ? 		O 		-0.95878
O 1.0  		0.9542703788794216 		0.5462440561641133  0.13905995931630413 		Uiso   ? 		O 		-0.95878
O 1.0  		0.9527556639923114 		0.048092197665748626  0.4637712121999462 		Uiso   ? 		O 		-0.93613
O 1.0  		0.45271041188505884 		0.548137449773001  0.4637712121999462 		Uiso   ? 		O 		-0.93613
O 1.0  		0.202782455511877 		0.7980654061461828  0.4637712121999462 		Uiso   ? 		O 		-0.93613
O 1.0  		0.7028277076191295 		0.29802015403893045  0.4637712121999462 		Uiso   ? 		O 		-0.93613
O 1.0  		0.7028277076191295 		0.7980654061461828  0.4637712121999462 		Uiso   ? 		O 		-0.93613
O 1.0  		0.4527104118850589 		0.048092197665748626  0.4637712121999462 		Uiso   ? 		O 		-0.93613
O 1.0  		0.20278245551187704 		0.29802015403893045  0.4637712121999462 		Uiso   ? 		O 		-0.93613
O 1.0  		0.9527556639923114 		0.548137449773001  0.4637712121999462 		Uiso   ? 		O 		-0.93613
O 1.0  		0.9542703788794216 		0.04979625191374759  0.7900890628163827 		Uiso   ? 		O 		-0.94051
O 1.0  		0.45422512677216903 		0.549841504021  0.7900890628163827 		Uiso   ? 		O 		-0.94051
O 1.0  		0.2042971703989872 		0.7997694603941818  0.7900890628163827 		Uiso   ? 		O 		-0.94051
O 1.0  		0.7041530831453509 		0.2997242082869294  0.7900890628163827 		Uiso   ? 		O 		-0.94051
O 1.0  		0.7041530831453509 		0.7997694603941818  0.7900890628163827 		Uiso   ? 		O 		-0.94051
O 1.0  		0.4542251267721691 		0.04979625191374759  0.7900890628163827 		Uiso   ? 		O 		-0.94051
O 1.0  		0.20429717039898723 		0.2997242082869294  0.7900890628163827 		Uiso   ? 		O 		-0.94051
O 1.0  		0.9542703788794216 		0.549841504021  0.7900890628163827 		Uiso   ? 		O 		-0.94051
O 1.0  		0.19407284491099341 		0.24898125956873796  0.16137381671622456 		Uiso   ? 		O 		-1.01508
O 1.0  		0.6939287576573572 		0.7488371723151016  0.16137381671622456 		Uiso   ? 		O 		-1.01508
O 1.0  		0.4440008012841753 		0.9989544680491722  0.16137381671622456 		Uiso   ? 		O 		-1.01508
O 1.0  		0.9440460533914277 		0.4989092159419197  0.16137381671622456 		Uiso   ? 		O 		-1.01508
O 1.0  		0.9440460533914276 		0.9989544680491722  0.16137381671622456 		Uiso   ? 		O 		-1.01508
O 1.0  		0.6939287576573572 		0.24898125956873796  0.16137381671622456 		Uiso   ? 		O 		-1.01508
O 1.0  		0.4440008012841753 		0.4989092159419197  0.16137381671622456 		Uiso   ? 		O 		-1.01508
O 1.0  		0.1940728449109934 		0.7488371723151016  0.16137381671622456 		Uiso   ? 		O 		-1.01508
O 1.0  		0.19331548746743832 		0.2501172957340706  0.48572804788146795 		Uiso   ? 		O 		-0.99654
O 1.0  		0.6933607395746908 		0.7501625478413231  0.48572804788146795 		Uiso   ? 		O 		-0.99654
O 1.0  		0.44324344384062025 		0.0  0.48572804788146795 		Uiso   ? 		O 		-0.99654
O 1.0  		0.9432886959478727 		0.5000452521072525  0.48572804788146795 		Uiso   ? 		O 		-0.99654
O 1.0  		0.9432886959478727 		0.0  0.48572804788146795 		Uiso   ? 		O 		-0.99654
O 1.0  		0.6933607395746908 		0.2501172957340706  0.48572804788146795 		Uiso   ? 		O 		-0.99654
O 1.0  		0.4432434438406202 		0.5000452521072525  0.48572804788146795 		Uiso   ? 		O 		-0.99654
O 1.0  		0.1933154874674383 		0.7501625478413231  0.48572804788146795 		Uiso   ? 		O 		-0.99654
O 1.0  		0.19236879066299448 		0.25106399253851447  0.8113318550611068 		Uiso   ? 		O 		-0.98374
O 1.0  		0.692414042770247 		0.7511092446457669  0.8113318550611068 		Uiso   ? 		O 		-0.98374
O 1.0  		0.4422967470361763 		0.0009466968044438706  0.8113318550611068 		Uiso   ? 		O 		-0.98374
O 1.0  		0.9423419991434289 		0.5009919489116963  0.8113318550611068 		Uiso   ? 		O 		-0.98374
O 1.0  		0.9423419991434289 		0.0009466968044438706  0.8113318550611068 		Uiso   ? 		O 		-0.98374
O 1.0  		0.692414042770247 		0.25106399253851447  0.8113318550611068 		Uiso   ? 		O 		-0.98374
O 1.0  		0.4422967470361762 		0.5009919489116963  0.8113318550611068 		Uiso   ? 		O 		-0.98374
O 1.0  		0.19236879066299445 		0.7511092446457669  0.8113318550611068 		Uiso   ? 		O 		-0.98374
O 1.0  		0.905231484409229 		0.26848321374028167  0.29686355884854143 		Uiso   ? 		O 		-0.64140
O 1.0  		0.4051862323019766 		0.7685284658475342  0.29686355884854143 		Uiso   ? 		O 		-0.64140
O 1.0  		0.15525827592879476 		0.018555257367099863  0.29686355884854143 		Uiso   ? 		O 		-0.64140
O 1.0  		0.6553035280360472 		0.5186005094743523  0.29686355884854143 		Uiso   ? 		O 		-0.64140
O 1.0  		0.6553035280360472 		0.018555257367099863  0.29686355884854143 		Uiso   ? 		O 		-0.64140
O 1.0  		0.40518623230197665 		0.26848321374028167  0.29686355884854143 		Uiso   ? 		O 		-0.64140
O 1.0  		0.15525827592879474 		0.5186005094743523  0.29686355884854143 		Uiso   ? 		O 		-0.64140
O 1.0  		0.905231484409229 		0.7685284658475342  0.29686355884854143 		Uiso   ? 		O 		-0.64140
O 1.0  		0.9059888418527842 		0.2694299105447256  0.6197897031401899 		Uiso   ? 		O 		-0.63556
O 1.0  		0.4059435897455317 		0.7692858232910892  0.6197897031401899 		Uiso   ? 		O 		-0.63556
O 1.0  		0.15601563337234986 		0.01931261481065496  0.6197897031401899 		Uiso   ? 		O 		-0.63556
O 1.0  		0.6560608854796023 		0.5193578669179074  0.6197897031401899 		Uiso   ? 		O 		-0.63556
O 1.0  		0.6560608854796023 		0.01931261481065496  0.6197897031401899 		Uiso   ? 		O 		-0.63556
O 1.0  		0.40594358974553174 		0.2694299105447256  0.6197897031401899 		Uiso   ? 		O 		-0.63556
O 1.0  		0.15601563337234983 		0.5193578669179074  0.6197897031401899 		Uiso   ? 		O 		-0.63556
O 1.0  		0.9059888418527842 		0.7692858232910892  0.6197897031401899 		Uiso   ? 		O 		-0.63556
O 1.0  		0.02347808075020797 		0.34346160065223624  0.29686355884854143 		Uiso   ? 		O 		-0.63340
O 1.0  		0.5235233328574604 		0.8435068527594887  0.29686355884854143 		Uiso   ? 		O 		-0.63340
O 1.0  		0.2735953764842786 		0.09353364427905442  0.29686355884854143 		Uiso   ? 		O 		-0.63340
O 1.0  		0.773640628591531 		0.5935788963863068  0.29686355884854143 		Uiso   ? 		O 		-0.63340
O 1.0  		0.773640628591531 		0.09353364427905442  0.29686355884854143 		Uiso   ? 		O 		-0.63340
O 1.0  		0.5235233328574604 		0.34346160065223624  0.29686355884854143 		Uiso   ? 		O 		-0.63340
O 1.0  		0.27359537648427856 		0.5935788963863068  0.29686355884854143 		Uiso   ? 		O 		-0.63340
O 1.0  		0.02347808075020794 		0.8435068527594887  0.29686355884854143 		Uiso   ? 		O 		-0.63340
O 1.0  		0.02347808075020797 		0.3438402793740138  0.6210392791545855 		Uiso   ? 		O 		-0.63083
O 1.0  		0.5235233328574604 		0.8438855314812662  0.6210392791545855 		Uiso   ? 		O 		-0.63083
O 1.0  		0.2735953764842786 		0.09372298363994319  0.6210392791545855 		Uiso   ? 		O 		-0.63083
O 1.0  		0.773640628591531 		0.5937682357471956  0.6210392791545855 		Uiso   ? 		O 		-0.63083
O 1.0  		0.773640628591531 		0.09372298363994319  0.6210392791545855 		Uiso   ? 		O 		-0.63083
O 1.0  		0.5235233328574604 		0.3438402793740138  0.6210392791545855 		Uiso   ? 		O 		-0.63083
O 1.0  		0.27359537648427856 		0.5937682357471956  0.6210392791545855 		Uiso   ? 		O 		-0.63083
O 1.0  		0.02347808075020794 		0.8438855314812662  0.6210392791545855 		Uiso   ? 		O 		-0.63083
O 1.0  		0.09542703788794214 		0.22663921498386264  0.3488102188755562 		Uiso   ? 		O 		-0.63335
O 1.0  		0.5954722899951946 		0.7266844670911151  0.3488102188755562 		Uiso   ? 		O 		-0.63335
O 1.0  		0.3455443336220127 		0.976612423464297  0.3488102188755562 		Uiso   ? 		O 		-0.63335
O 1.0  		0.8454002463683764 		0.4767565107179332  0.3488102188755562 		Uiso   ? 		O 		-0.63335
O 1.0  		0.8454002463683763 		0.976612423464297  0.3488102188755562 		Uiso   ? 		O 		-0.63335
O 1.0  		0.5954722899951946 		0.22663921498386264  0.3488102188755562 		Uiso   ? 		O 		-0.63335
O 1.0  		0.3455443336220127 		0.4767565107179332  0.3488102188755562 		Uiso   ? 		O 		-0.63335
O 1.0  		0.09542703788794211 		0.7266844670911151  0.3488102188755562 		Uiso   ? 		O 		-0.63335
O 1.0  		0.09542703788794214 		0.22644987562297383  0.6731644500407995 		Uiso   ? 		O 		-0.63399
O 1.0  		0.5954722899951946 		0.7263057883693375  0.6731644500407995 		Uiso   ? 		O 		-0.63399
O 1.0  		0.3455443336220127 		0.9764230841034081  0.6731644500407995 		Uiso   ? 		O 		-0.63399
O 1.0  		0.8454002463683764 		0.4763778319961557  0.6731644500407995 		Uiso   ? 		O 		-0.63399
O 1.0  		0.8454002463683763 		0.9764230841034081  0.6731644500407995 		Uiso   ? 		O 		-0.63399
O 1.0  		0.5954722899951946 		0.22644987562297383  0.6731644500407995 		Uiso   ? 		O 		-0.63399
O 1.0  		0.3455443336220127 		0.4763778319961557  0.6731644500407995 		Uiso   ? 		O 		-0.63399
O 1.0  		0.09542703788794211 		0.7263057883693375  0.6731644500407995 		Uiso   ? 		O 		-0.63399
O 1.0  		0.981535246847405 		0.15336488231990705  0.34898872973475553 		Uiso   ? 		O 		-0.64626
O 1.0  		0.4814899947401525 		0.6534101344271595  0.34898872973475553 		Uiso   ? 		O 		-0.64626
O 1.0  		0.2315620383669707 		0.9033380908003413  0.34898872973475553 		Uiso   ? 		O 		-0.64626
O 1.0  		0.7316072904742231 		0.40348217805397757  0.34898872973475553 		Uiso   ? 		O 		-0.64626
O 1.0  		0.7316072904742231 		0.9033380908003413  0.34898872973475553 		Uiso   ? 		O 		-0.64626
O 1.0  		0.4814899947401526 		0.15336488231990705  0.34898872973475553 		Uiso   ? 		O 		-0.64626
O 1.0  		0.23156203836697073 		0.40348217805397757  0.34898872973475553 		Uiso   ? 		O 		-0.64626
O 1.0  		0.981535246847405 		0.6534101344271595  0.34898872973475553 		Uiso   ? 		O 		-0.64626
O 1.0  		0.9805885500429612 		0.1543115791243509  0.6744140260551951 		Uiso   ? 		O 		-0.64429
O 1.0  		0.4805432979357086 		0.6543568312316034  0.6744140260551951 		Uiso   ? 		O 		-0.64429
O 1.0  		0.2306153415625268 		0.9042847876047851  0.6744140260551951 		Uiso   ? 		O 		-0.64429
O 1.0  		0.7306605936697793 		0.40442887485842155  0.6744140260551951 		Uiso   ? 		O 		-0.64429
O 1.0  		0.7306605936697793 		0.9042847876047851  0.6744140260551951 		Uiso   ? 		O 		-0.64429
O 1.0  		0.48054329793570866 		0.1543115791243509  0.6744140260551951 		Uiso   ? 		O 		-0.64429
O 1.0  		0.23061534156252683 		0.40442887485842155  0.6744140260551951 		Uiso   ? 		O 		-0.64429
O 1.0  		0.9805885500429612 		0.6543568312316034  0.6744140260551951 		Uiso   ? 		O 		-0.64429
O 1.0  		0.906935538657228 		0.3137353209926987  0.32042699226285737 		Uiso   ? 		O 		-0.64049
O 1.0  		0.4068902865499755 		0.8137805730999511  0.32042699226285737 		Uiso   ? 		O 		-0.64049
O 1.0  		0.15696233017679373 		0.0636180252586281  0.32042699226285737 		Uiso   ? 		O 		-0.64049
O 1.0  		0.6570075822840462 		0.5636632773658805  0.32042699226285737 		Uiso   ? 		O 		-0.64049
O 1.0  		0.6570075822840462 		0.0636180252586281  0.32042699226285737 		Uiso   ? 		O 		-0.64049
O 1.0  		0.40689028654997556 		0.3137353209926987  0.32042699226285737 		Uiso   ? 		O 		-0.64049
O 1.0  		0.1569623301767937 		0.5636632773658805  0.32042699226285737 		Uiso   ? 		O 		-0.64049
O 1.0  		0.906935538657228 		0.8137805730999511  0.32042699226285737 		Uiso   ? 		O 		-0.64049
O 1.0  		0.906935538657228 		0.3137353209926987  0.6446027125689014 		Uiso   ? 		O 		-0.63930
O 1.0  		0.4068902865499755 		0.8137805730999511  0.6446027125689014 		Uiso   ? 		O 		-0.63930
O 1.0  		0.15696233017679373 		0.0636180252586281  0.6446027125689014 		Uiso   ? 		O 		-0.63930
O 1.0  		0.6570075822840462 		0.5636632773658805  0.6446027125689014 		Uiso   ? 		O 		-0.63930
O 1.0  		0.6570075822840462 		0.0636180252586281  0.6446027125689014 		Uiso   ? 		O 		-0.63930
O 1.0  		0.40689028654997556 		0.3137353209926987  0.6446027125689014 		Uiso   ? 		O 		-0.63930
O 1.0  		0.1569623301767937 		0.5636632773658805  0.6446027125689014 		Uiso   ? 		O 		-0.63930
O 1.0  		0.906935538657228 		0.8137805730999511  0.6446027125689014 		Uiso   ? 		O 		-0.63930
O 1.0  		0.06380736461951685 		0.3430829219304587  0.32685338319403445 		Uiso   ? 		O 		-0.63997
O 1.0  		0.5636632773658805 		0.8429388346768223  0.32685338319403445 		Uiso   ? 		O 		-0.63997
O 1.0  		0.3137353209926987 		0.09296562619638808  0.32685338319403445 		Uiso   ? 		O 		-0.63997
O 1.0  		0.8137805730999511 		0.5930108783036405  0.32685338319403445 		Uiso   ? 		O 		-0.63997
O 1.0  		0.8137805730999511 		0.09296562619638808  0.32685338319403445 		Uiso   ? 		O 		-0.63997
O 1.0  		0.5636632773658805 		0.3430829219304587  0.32685338319403445 		Uiso   ? 		O 		-0.63997
O 1.0  		0.31373532099269863 		0.5930108783036405  0.32685338319403445 		Uiso   ? 		O 		-0.63997
O 1.0  		0.06380736461951682 		0.8429388346768223  0.32685338319403445 		Uiso   ? 		O 		-0.63997
O 1.0  		0.0634286858977393 		0.34270424320868115  0.6512076143592779 		Uiso   ? 		O 		-0.63860
O 1.0  		0.5634739380049918 		0.8427494953159335  0.6512076143592779 		Uiso   ? 		O 		-0.63860
O 1.0  		0.3135459816318099 		0.09277628683549931  0.6512076143592779 		Uiso   ? 		O 		-0.63860
O 1.0  		0.8134018943781737 		0.5928215389427517  0.6512076143592779 		Uiso   ? 		O 		-0.63860
O 1.0  		0.8134018943781737 		0.09277628683549931  0.6512076143592779 		Uiso   ? 		O 		-0.63860
O 1.0  		0.5634739380049918 		0.34270424320868115  0.6512076143592779 		Uiso   ? 		O 		-0.63860
O 1.0  		0.31354598163180986 		0.5928215389427517  0.6512076143592779 		Uiso   ? 		O 		-0.63860
O 1.0  		0.06342868589773927 		0.8427494953159335  0.6512076143592779 		Uiso   ? 		O 		-0.63860
O 1.0  		0.9523769852705338 		0.2978308146780417  0.30204037376532294 		Uiso   ? 		O 		-0.93925
O 1.0  		0.4525210725241701 		0.7978760667852942  0.30204037376532294 		Uiso   ? 		O 		-0.93925
O 1.0  		0.20240377679009952 		0.04790285830485985  0.30204037376532294 		Uiso   ? 		O 		-0.93925
O 1.0  		0.702449028897352 		0.5479481104121123  0.30204037376532294 		Uiso   ? 		O 		-0.93925
O 1.0  		0.702449028897352 		0.04790285830485985  0.30204037376532294 		Uiso   ? 		O 		-0.93925
O 1.0  		0.4525210725241702 		0.2978308146780417  0.30204037376532294 		Uiso   ? 		O 		-0.93925
O 1.0  		0.2024037767900995 		0.5479481104121123  0.30204037376532294 		Uiso   ? 		O 		-0.93925
O 1.0  		0.9523769852705338 		0.7978760667852942  0.30204037376532294 		Uiso   ? 		O 		-0.93925
O 1.0  		0.9523769852705338 		0.2978308146780417  0.6255020506345695 		Uiso   ? 		O 		-0.93526
O 1.0  		0.4525210725241701 		0.7978760667852942  0.6255020506345695 		Uiso   ? 		O 		-0.93526
O 1.0  		0.20240377679009952 		0.04790285830485985  0.6255020506345695 		Uiso   ? 		O 		-0.93526
O 1.0  		0.702449028897352 		0.5479481104121123  0.6255020506345695 		Uiso   ? 		O 		-0.93526
O 1.0  		0.702449028897352 		0.04790285830485985  0.6255020506345695 		Uiso   ? 		O 		-0.93526
O 1.0  		0.4525210725241702 		0.2978308146780417  0.6255020506345695 		Uiso   ? 		O 		-0.93526
O 1.0  		0.2024037767900995 		0.5479481104121123  0.6255020506345695 		Uiso   ? 		O 		-0.93526
O 1.0  		0.9523769852705338 		0.7978760667852942  0.6255020506345695 		Uiso   ? 		O 		-0.93526
O 1.0  		0.04979625191374757 		0.2997242082869294  0.30204037376532294 		Uiso   ? 		O 		-0.98929
O 1.0  		0.549841504021 		0.799580121033293  0.30204037376532294 		Uiso   ? 		O 		-0.98929
O 1.0  		0.2997242082869294 		0.04960691255285882  0.30204037376532294 		Uiso   ? 		O 		-0.98929
O 1.0  		0.7997694603941818 		0.5496521646601112  0.30204037376532294 		Uiso   ? 		O 		-0.98929
O 1.0  		0.7997694603941818 		0.04960691255285882  0.30204037376532294 		Uiso   ? 		O 		-0.98929
O 1.0  		0.549841504021 		0.2997242082869294  0.30204037376532294 		Uiso   ? 		O 		-0.98929
O 1.0  		0.29972420828692936 		0.5496521646601112  0.30204037376532294 		Uiso   ? 		O 		-0.98929
O 1.0  		0.04979625191374754 		0.799580121033293  0.30204037376532294 		Uiso   ? 		O 		-0.98929
O 1.0  		0.04979625191374757 		0.2997242082869294  0.6258590723529682 		Uiso   ? 		O 		-0.99111
O 1.0  		0.549841504021 		0.799580121033293  0.6258590723529682 		Uiso   ? 		O 		-0.99111
O 1.0  		0.2997242082869294 		0.04960691255285882  0.6258590723529682 		Uiso   ? 		O 		-0.99111
O 1.0  		0.7997694603941818 		0.5496521646601112  0.6258590723529682 		Uiso   ? 		O 		-0.99111
O 1.0  		0.7997694603941818 		0.04960691255285882  0.6258590723529682 		Uiso   ? 		O 		-0.99111
O 1.0  		0.549841504021 		0.2997242082869294  0.6258590723529682 		Uiso   ? 		O 		-0.99111
O 1.0  		0.29972420828692936 		0.5496521646601112  0.6258590723529682 		Uiso   ? 		O 		-0.99111
O 1.0  		0.04979625191374754 		0.799580121033293  0.6258590723529682 		Uiso   ? 		O 		-0.99111
O 1.0  		0.9432886959478727 		0.24992795637318185  0.324175720306044 		Uiso   ? 		O 		-0.99474
O 1.0  		0.4434327832015089 		0.7499732084804343  0.324175720306044 		Uiso   ? 		O 		-0.99474
O 1.0  		0.1933154874674383 		0.999901164853616  0.324175720306044 		Uiso   ? 		O 		-0.99474
O 1.0  		0.6933607395746908 		0.5000452521072525  0.324175720306044 		Uiso   ? 		O 		-0.99474
O 1.0  		0.6933607395746907 		0.999901164853616  0.324175720306044 		Uiso   ? 		O 		-0.99474
O 1.0  		0.443432783201509 		0.24992795637318185  0.324175720306044 		Uiso   ? 		O 		-0.99474
O 1.0  		0.19331548746743832 		0.5000452521072525  0.324175720306044 		Uiso   ? 		O 		-0.99474
O 1.0  		0.9432886959478727 		0.7499732084804343  0.324175720306044 		Uiso   ? 		O 		-0.99474
O 1.0  		0.9432886959478727 		0.2501172957340706  0.6472803754568919 		Uiso   ? 		O 		-0.99660
O 1.0  		0.4432434438406202 		0.7501625478413231  0.6472803754568919 		Uiso   ? 		O 		-0.99660
O 1.0  		0.19331548746743835 		0.0  0.6472803754568919 		Uiso   ? 		O 		-0.99660
O 1.0  		0.6931714002138021 		0.5000452521072525  0.6472803754568919 		Uiso   ? 		O 		-0.99660
O 1.0  		0.6931714002138021 		0.0  0.6472803754568919 		Uiso   ? 		O 		-0.99660
O 1.0  		0.44324344384062025 		0.2501172957340706  0.6472803754568919 		Uiso   ? 		O 		-0.99660
O 1.0  		0.19331548746743832 		0.5000452521072525  0.6472803754568919 		Uiso   ? 		O 		-0.99660
O 1.0  		0.9432886959478727 		0.7501625478413231  0.6472803754568919 		Uiso   ? 		O 		-0.99660
O 1.0  		0.950483591661646 		0.04979625191374759  0.18243809810174944 		Uiso   ? 		O 		-0.99782
O 1.0  		0.45043833955439355 		0.549841504021  0.18243809810174944 		Uiso   ? 		O 		-0.99782
O 1.0  		0.20051038318121173 		0.7997694603941818  0.18243809810174944 		Uiso   ? 		O 		-0.99782
O 1.0  		0.7005556352884642 		0.2997242082869294  0.18243809810174944 		Uiso   ? 		O 		-0.99782
O 1.0  		0.7005556352884642 		0.7997694603941818  0.18243809810174944 		Uiso   ? 		O 		-0.99782
O 1.0  		0.4504383395543936 		0.04979625191374759  0.18243809810174944 		Uiso   ? 		O 		-0.99782
O 1.0  		0.20051038318121175 		0.2997242082869294  0.18243809810174944 		Uiso   ? 		O 		-0.99782
O 1.0  		0.950483591661646 		0.549841504021  0.18243809810174944 		Uiso   ? 		O 		-0.99782
O 1.0  		0.2001317044594342 		0.2997242082869294  0.5076848835629896 		Uiso   ? 		O 		-1.00074
O 1.0  		0.7001769565666867 		0.7997694603941818  0.5076848835629896 		Uiso   ? 		O 		-1.00074
O 1.0  		0.4502490001935049 		0.04979625191374759  0.5076848835629896 		Uiso   ? 		O 		-1.00074
O 1.0  		0.9501049129398684 		0.549841504021  0.5076848835629896 		Uiso   ? 		O 		-1.00074
O 1.0  		0.9501049129398684 		0.04979625191374759  0.5076848835629896 		Uiso   ? 		O 		-1.00074
O 1.0  		0.7001769565666867 		0.2997242082869294  0.5076848835629896 		Uiso   ? 		O 		-1.00074
O 1.0  		0.45024900019350483 		0.549841504021  0.5076848835629896 		Uiso   ? 		O 		-1.00074
O 1.0  		0.20013170445943418 		0.7997694603941818  0.5076848835629896 		Uiso   ? 		O 		-1.00074
O 1.0  		0.9529450033532002 		0.04884955510930372  0.8334672016018279 		Uiso   ? 		O 		-0.99906
O 1.0  		0.45308909060683633 		0.5488948072165561  0.8334672016018279 		Uiso   ? 		O 		-0.99906
O 1.0  		0.20297179487276581 		0.798822763589738  0.8334672016018279 		Uiso   ? 		O 		-0.99906
O 1.0  		0.7030170469800183 		0.29877751148248555  0.8334672016018279 		Uiso   ? 		O 		-0.99906
O 1.0  		0.7030170469800183 		0.798822763589738  0.8334672016018279 		Uiso   ? 		O 		-0.99906
O 1.0  		0.4530890906068364 		0.04884955510930372  0.8334672016018279 		Uiso   ? 		O 		-0.99906
O 1.0  		0.20297179487276584 		0.29877751148248555  0.8334672016018279 		Uiso   ? 		O 		-0.99906
O 1.0  		0.9529450033532002 		0.5488948072165561  0.8334672016018279 		Uiso   ? 		O 		-0.99906
O 1.0  		0.952187645909645 		0.4502490001935049  0.18440171755294243 		Uiso   ? 		O 		-0.96478
O 1.0  		0.4521423938023925 		0.9502942523007573  0.18440171755294243 		Uiso   ? 		O 		-0.96478
O 1.0  		0.20221443742921077 		0.200321043820323  0.18440171755294243 		Uiso   ? 		O 		-0.96478
O 1.0  		0.7022596895364632 		0.7001769565666867  0.18440171755294243 		Uiso   ? 		O 		-0.96478
O 1.0  		0.7022596895364632 		0.200321043820323  0.18440171755294243 		Uiso   ? 		O 		-0.96478
O 1.0  		0.4521423938023926 		0.4502490001935049  0.18440171755294243 		Uiso   ? 		O 		-0.96478
O 1.0  		0.20221443742921072 		0.7001769565666867  0.18440171755294243 		Uiso   ? 		O 		-0.96478
O 1.0  		0.9521876459096449 		0.9502942523007573  0.18440171755294243 		Uiso   ? 		O 		-0.96478
O 1.0  		0.9523769852705338 		0.4519530544415038  0.5076848835629896 		Uiso   ? 		O 		-0.93407
O 1.0  		0.45233173316328124 		0.9519983065487562  0.5076848835629896 		Uiso   ? 		O 		-0.93407
O 1.0  		0.20240377679009952 		0.20202509806832197  0.5076848835629896 		Uiso   ? 		O 		-0.93407
O 1.0  		0.7022596895364632 		0.7020703501755744  0.5076848835629896 		Uiso   ? 		O 		-0.93407
O 1.0  		0.7022596895364632 		0.20202509806832197  0.5076848835629896 		Uiso   ? 		O 		-0.93407
O 1.0  		0.4523317331632813 		0.4519530544415038  0.5076848835629896 		Uiso   ? 		O 		-0.93407
O 1.0  		0.20240377679009947 		0.7020703501755744  0.5076848835629896 		Uiso   ? 		O 		-0.93407
O 1.0  		0.9523769852705337 		0.9519983065487562  0.5076848835629896 		Uiso   ? 		O 		-0.93407
O 1.0  		0.20088906190298933 		0.20126774062476688  0.8309680495730369 		Uiso   ? 		O 		-0.97300
O 1.0  		0.7009343140102418 		0.7013129927320193  0.8309680495730369 		Uiso   ? 		O 		-0.97300
O 1.0  		0.45081701827617104 		0.9512409491052012  0.8309680495730369 		Uiso   ? 		O 		-0.97300
O 1.0  		0.9508622703834236 		0.4513850363588375  0.8309680495730369 		Uiso   ? 		O 		-0.97300
O 1.0  		0.9508622703834235 		0.9512409491052012  0.8309680495730369 		Uiso   ? 		O 		-0.97300
O 1.0  		0.7009343140102418 		0.20126774062476688  0.8309680495730369 		Uiso   ? 		O 		-0.97300
O 1.0  		0.4508170182761711 		0.4513850363588375  0.8309680495730369 		Uiso   ? 		O 		-0.97300
O 1.0  		0.20088906190298927 		0.7013129927320193  0.8309680495730369 		Uiso   ? 		O 		-0.97300
O 1.0  		0.04771351894397105 		0.4521423938023926  0.13905995931630413 		Uiso   ? 		O 		-0.97742
O 1.0  		0.5477587710512234 		0.952187645909645  0.13905995931630413 		Uiso   ? 		O 		-0.97742
O 1.0  		0.2978308146780417 		0.20221443742921077  0.13905995931630413 		Uiso   ? 		O 		-0.97742
O 1.0  		0.7978760667852942 		0.7020703501755744  0.13905995931630413 		Uiso   ? 		O 		-0.97742
O 1.0  		0.7978760667852942 		0.20221443742921077  0.13905995931630413 		Uiso   ? 		O 		-0.97742
O 1.0  		0.5477587710512235 		0.4521423938023926  0.13905995931630413 		Uiso   ? 		O 		-0.97742
O 1.0  		0.2978308146780416 		0.7020703501755744  0.13905995931630413 		Uiso   ? 		O 		-0.97742
O 1.0  		0.04771351894397102 		0.952187645909645  0.13905995931630413 		Uiso   ? 		O 		-0.97742
O 1.0  		0.04752417958308228 		0.4521423938023926  0.4637712121999462 		Uiso   ? 		O 		-0.94491
O 1.0  		0.5475694316903346 		0.952187645909645  0.4637712121999462 		Uiso   ? 		O 		-0.94491
O 1.0  		0.29745213595626413 		0.20221443742921077  0.4637712121999462 		Uiso   ? 		O 		-0.94491
O 1.0  		0.7974973880635166 		0.7020703501755744  0.4637712121999462 		Uiso   ? 		O 		-0.94491
O 1.0  		0.7974973880635166 		0.20221443742921077  0.4637712121999462 		Uiso   ? 		O 		-0.94491
O 1.0  		0.5475694316903347 		0.4521423938023926  0.4637712121999462 		Uiso   ? 		O 		-0.94491
O 1.0  		0.2974521359562641 		0.7020703501755744  0.4637712121999462 		Uiso   ? 		O 		-0.94491
O 1.0  		0.04752417958308225 		0.952187645909645  0.4637712121999462 		Uiso   ? 		O 		-0.94491
O 1.0  		0.04600946469597208 		0.4504383395543936  0.7902675736755819 		Uiso   ? 		O 		-0.94891
O 1.0  		0.5460547168032244 		0.9502942523007573  0.7902675736755819 		Uiso   ? 		O 		-0.94891
O 1.0  		0.2961267604300427 		0.200321043820323  0.7902675736755819 		Uiso   ? 		O 		-0.94891
O 1.0  		0.7959826731764064 		0.7003662959275754  0.7902675736755819 		Uiso   ? 		O 		-0.94891
O 1.0  		0.7959826731764064 		0.200321043820323  0.7902675736755819 		Uiso   ? 		O 		-0.94891
O 1.0  		0.5460547168032245 		0.4504383395543936  0.7902675736755819 		Uiso   ? 		O 		-0.94891
O 1.0  		0.29612676043004266 		0.7003662959275754  0.7902675736755819 		Uiso   ? 		O 		-0.94891
O 1.0  		0.04600946469597205 		0.9502942523007573  0.7902675736755819 		Uiso   ? 		O 		-0.94891
O 1.0  		0.8009054965595146 		0.2989668508433743  0.1381674050203073 		Uiso   ? 		O 		-1.01892
O 1.0  		0.300860244452262 		0.7990121029506267  0.1381674050203073 		Uiso   ? 		O 		-1.01892
O 1.0  		0.05093228807908024 		0.049038894470192496  0.1381674050203073 		Uiso   ? 		O 		-1.01892
O 1.0  		0.5509775401863327 		0.5488948072165561  0.1381674050203073 		Uiso   ? 		O 		-1.01892
O 1.0  		0.5509775401863327 		0.049038894470192496  0.1381674050203073 		Uiso   ? 		O 		-1.01892
O 1.0  		0.30086024445226206 		0.2989668508433743  0.1381674050203073 		Uiso   ? 		O 		-1.01892
O 1.0  		0.05093228807908021 		0.5488948072165561  0.1381674050203073 		Uiso   ? 		O 		-1.01892
O 1.0  		0.8009054965595146 		0.7990121029506267  0.1381674050203073 		Uiso   ? 		O 		-1.01892
O 1.0  		0.798822763589738 		0.2985881721215968  0.18350916325694563 		Uiso   ? 		O 		-0.96505
O 1.0  		0.29896685084337427 		0.7986334242288492  0.18350916325694563 		Uiso   ? 		O 		-0.96505
O 1.0  		0.04884955510930372 		0.048470876387526174  0.18350916325694563 		Uiso   ? 		O 		-0.96505
O 1.0  		0.5488948072165561 		0.5485161284947786  0.18350916325694563 		Uiso   ? 		O 		-0.96505
O 1.0  		0.5488948072165561 		0.048470876387526174  0.18350916325694563 		Uiso   ? 		O 		-0.96505
O 1.0  		0.2989668508433743 		0.2985881721215968  0.18350916325694563 		Uiso   ? 		O 		-0.96505
O 1.0  		0.04884955510930369 		0.5485161284947786  0.18350916325694563 		Uiso   ? 		O 		-0.96505
O 1.0  		0.798822763589738 		0.7986334242288492  0.18350916325694563 		Uiso   ? 		O 		-0.96505
O 1.0  		0.7997694603941818 		0.29953486892604064  0.4637712121999462 		Uiso   ? 		O 		-0.99110
O 1.0  		0.29991354764781814 		0.799580121033293  0.4637712121999462 		Uiso   ? 		O 		-0.99110
O 1.0  		0.04979625191374759 		0.04941757319197004  0.4637712121999462 		Uiso   ? 		O 		-0.99110
O 1.0  		0.549841504021 		0.5494628252992225  0.4637712121999462 		Uiso   ? 		O 		-0.99110
O 1.0  		0.549841504021 		0.04941757319197004  0.4637712121999462 		Uiso   ? 		O 		-0.99110
O 1.0  		0.2999135476478182 		0.29953486892604064  0.4637712121999462 		Uiso   ? 		O 		-0.99110
O 1.0  		0.049796251913747556 		0.5494628252992225  0.4637712121999462 		Uiso   ? 		O 		-0.99110
O 1.0  		0.7997694603941818 		0.799580121033293  0.4637712121999462 		Uiso   ? 		O 		-0.99110
O 1.0  		0.7976867274244054 		0.2976414753171529  0.5075063727037903 		Uiso   ? 		O 		-0.93529
O 1.0  		0.29764147531715285 		0.7976867274244054  0.5075063727037903 		Uiso   ? 		O 		-0.93529
O 1.0  		0.04771351894397108 		0.04771351894397108  0.5075063727037903 		Uiso   ? 		O 		-0.93529
O 1.0  		0.5477587710512235 		0.5475694316903347  0.5075063727037903 		Uiso   ? 		O 		-0.93529
O 1.0  		0.5477587710512235 		0.04771351894397108  0.5075063727037903 		Uiso   ? 		O 		-0.93529
O 1.0  		0.2976414753171529 		0.2976414753171529  0.5075063727037903 		Uiso   ? 		O 		-0.93529
O 1.0  		0.047713518943971044 		0.5475694316903347  0.5075063727037903 		Uiso   ? 		O 		-0.93529
O 1.0  		0.7976867274244054 		0.7976867274244054  0.5075063727037903 		Uiso   ? 		O 		-0.93529
O 1.0  		0.8016628540030696 		0.29593742106915394  0.7879469325059902 		Uiso   ? 		O 		-0.98985
O 1.0  		0.3018069412567059 		0.7959826731764064  0.7879469325059902 		Uiso   ? 		O 		-0.98985
O 1.0  		0.05168964552263534 		0.046009464695972106  0.7879469325059902 		Uiso   ? 		O 		-0.98985
O 1.0  		0.5517348976298878 		0.5460547168032245  0.7879469325059902 		Uiso   ? 		O 		-0.98985
O 1.0  		0.5517348976298878 		0.046009464695972106  0.7879469325059902 		Uiso   ? 		O 		-0.98985
O 1.0  		0.30180694125670593 		0.29593742106915394  0.7879469325059902 		Uiso   ? 		O 		-0.98985
O 1.0  		0.0516896455226353 		0.5460547168032245  0.7879469325059902 		Uiso   ? 		O 		-0.98985
O 1.0  		0.8016628540030696 		0.7959826731764064  0.7879469325059902 		Uiso   ? 		O 		-0.98985
O 1.0  		0.7999587997550706 		0.2978308146780417  0.8318606038690337 		Uiso   ? 		O 		-0.97569
O 1.0  		0.29991354764781814 		0.7976867274244054  0.8318606038690337 		Uiso   ? 		O 		-0.97569
O 1.0  		0.049985591274636365 		0.04771351894397108  0.8318606038690337 		Uiso   ? 		O 		-0.97569
O 1.0  		0.5500308433818888 		0.5477587710512235  0.8318606038690337 		Uiso   ? 		O 		-0.97569
O 1.0  		0.5500308433818888 		0.04771351894397108  0.8318606038690337 		Uiso   ? 		O 		-0.97569
O 1.0  		0.2999135476478182 		0.2978308146780417  0.8318606038690337 		Uiso   ? 		O 		-0.97569
O 1.0  		0.04998559127463633 		0.5477587710512235  0.8318606038690337 		Uiso   ? 		O 		-0.97569
O 1.0  		0.7999587997550706 		0.7976867274244054  0.8318606038690337 		Uiso   ? 		O 		-0.97569
C 1.0  		0.9794525138776285 		0.38379088452154514  0.23277816039596994 		Uiso   ? 		C 		-0.21927
C 1.0  		0.479407261770376 		0.8836467972679087  0.23277816039596994 		Uiso   ? 		C 		-0.21927
C 1.0  		0.22928996603630547 		0.1336735887874745  0.23277816039596994 		Uiso   ? 		C 		-0.21927
C 1.0  		0.7293352181435578 		0.633718840894727  0.23277816039596994 		Uiso   ? 		C 		-0.21927
C 1.0  		0.7293352181435578 		0.1336735887874745  0.23277816039596994 		Uiso   ? 		C 		-0.21927
C 1.0  		0.47940726177037607 		0.38379088452154514  0.23277816039596994 		Uiso   ? 		C 		-0.21927
C 1.0  		0.22928996603630544 		0.633718840894727  0.23277816039596994 		Uiso   ? 		C 		-0.21927
C 1.0  		0.9794525138776285 		0.8836467972679087  0.23277816039596994 		Uiso   ? 		C 		-0.21927
C 1.0  		0.9792631745167396 		0.3832228664388788  0.5565968589836152 		Uiso   ? 		C 		-0.21367
C 1.0  		0.47921792240948724 		0.8832681185461313  0.5565968589836152 		Uiso   ? 		C 		-0.21367
C 1.0  		0.22928996603630547 		0.13329491006569696  0.5565968589836152 		Uiso   ? 		C 		-0.21367
C 1.0  		0.7293352181435578 		0.6333401621729494  0.5565968589836152 		Uiso   ? 		C 		-0.21367
C 1.0  		0.7293352181435578 		0.13329491006569696  0.5565968589836152 		Uiso   ? 		C 		-0.21367
C 1.0  		0.4792179224094873 		0.3832228664388788  0.5565968589836152 		Uiso   ? 		C 		-0.21367
C 1.0  		0.22928996603630544 		0.6333401621729494  0.5565968589836152 		Uiso   ? 		C 		-0.21367
C 1.0  		0.9792631745167396 		0.8832681185461313  0.5565968589836152 		Uiso   ? 		C 		-0.21367
C 1.0  		0.8713397388101385 		0.22266308840519836  0.2306360300855776 		Uiso   ? 		C 		0.31009
C 1.0  		0.371294486702886 		0.7227083405124508  0.2306360300855776 		Uiso   ? 		C 		0.31009
C 1.0  		0.12136653032970415 		0.9726362968856326  0.2306360300855776 		Uiso   ? 		C 		0.31009
C 1.0  		0.6214117824369566 		0.4725910447783802  0.2306360300855776 		Uiso   ? 		C 		0.31009
C 1.0  		0.6214117824369565 		0.9726362968856326  0.2306360300855776 		Uiso   ? 		C 		0.31009
C 1.0  		0.37129448670288606 		0.22266308840519836  0.2306360300855776 		Uiso   ? 		C 		0.31009
C 1.0  		0.12136653032970418 		0.4725910447783802  0.2306360300855776 		Uiso   ? 		C 		0.31009
C 1.0  		0.8713397388101385 		0.7227083405124508  0.2306360300855776 		Uiso   ? 		C 		0.31009
C 1.0  		0.870014363283917 		0.22323110648786468  0.554990261250821 		Uiso   ? 		C 		0.31101
C 1.0  		0.36996911117666453 		0.7232763585951171  0.554990261250821 		Uiso   ? 		C 		0.31101
C 1.0  		0.12004115480348274 		0.9732043149682988  0.554990261250821 		Uiso   ? 		C 		0.31101
C 1.0  		0.6200864069107352 		0.47315906286104653  0.554990261250821 		Uiso   ? 		C 		0.31101
C 1.0  		0.6200864069107351 		0.9732043149682988  0.554990261250821 		Uiso   ? 		C 		0.31101
C 1.0  		0.3699691111766646 		0.22323110648786468  0.554990261250821 		Uiso   ? 		C 		0.31101
C 1.0  		0.12004115480348276 		0.47315906286104653  0.554990261250821 		Uiso   ? 		C 		0.31101
C 1.0  		0.870014363283917 		0.7232763585951171  0.554990261250821 		Uiso   ? 		C 		0.31101
C 1.0  		0.02423543819376308 		0.11795842183370628  0.4153947693569187 		Uiso   ? 		C 		-0.07147
C 1.0  		0.5242806903010155 		0.6180036739409587  0.4153947693569187 		Uiso   ? 		C 		-0.07147
C 1.0  		0.27416339456694483 		0.8679316303141404  0.4153947693569187 		Uiso   ? 		C 		-0.07147
C 1.0  		0.7742086466741974 		0.36788637820688813  0.4153947693569187 		Uiso   ? 		C 		-0.07147
C 1.0  		0.7742086466741974 		0.8679316303141404  0.4153947693569187 		Uiso   ? 		C 		-0.07147
C 1.0  		0.5242806903010155 		0.11795842183370628  0.4153947693569187 		Uiso   ? 		C 		-0.07147
C 1.0  		0.2741633945669449 		0.36788637820688813  0.4153947693569187 		Uiso   ? 		C 		-0.07147
C 1.0  		0.02423543819376305 		0.6180036739409587  0.4153947693569187 		Uiso   ? 		C 		-0.07147
C 1.0  		0.024424777554651854 		0.11795842183370628  0.7397490005221622 		Uiso   ? 		C 		-0.07416
C 1.0  		0.5244700296619043 		0.6180036739409587  0.7397490005221622 		Uiso   ? 		C 		-0.07416
C 1.0  		0.2745420732887224 		0.8679316303141404  0.7397490005221622 		Uiso   ? 		C 		-0.07416
C 1.0  		0.774587325395975 		0.36788637820688813  0.7397490005221622 		Uiso   ? 		C 		-0.07416
C 1.0  		0.774587325395975 		0.8679316303141404  0.7397490005221622 		Uiso   ? 		C 		-0.07416
C 1.0  		0.5244700296619043 		0.11795842183370628  0.7397490005221622 		Uiso   ? 		C 		-0.07416
C 1.0  		0.27454207328872243 		0.36788637820688813  0.7397490005221622 		Uiso   ? 		C 		-0.07416
C 1.0  		0.024424777554651823 		0.6180036739409587  0.7397490005221622 		Uiso   ? 		C 		-0.07416
C 1.0  		0.13159085581769797 		0.2703766073491694  0.41521625849771937 		Uiso   ? 		C 		-0.13863
C 1.0  		0.6316361079249504 		0.770232520095533  0.41521625849771937 		Uiso   ? 		C 		-0.13863
C 1.0  		0.38151881219087985 		0.020259311615098828  0.41521625849771937 		Uiso   ? 		C 		-0.13863
C 1.0  		0.8815640642981322 		0.5203045637223513  0.41521625849771937 		Uiso   ? 		C 		-0.13863
C 1.0  		0.8815640642981322 		0.020259311615098828  0.41521625849771937 		Uiso   ? 		C 		-0.13863
C 1.0  		0.6316361079249504 		0.2703766073491694  0.41521625849771937 		Uiso   ? 		C 		-0.13863
C 1.0  		0.3815188121908798 		0.5203045637223513  0.41521625849771937 		Uiso   ? 		C 		-0.13863
C 1.0  		0.13159085581769794 		0.770232520095533  0.41521625849771937 		Uiso   ? 		C 		-0.13863
C 1.0  		0.1314015164568092 		0.272459340318946  0.7386779353669659 		Uiso   ? 		C 		-0.14531
C 1.0  		0.631257429203173 		0.7725045924261984  0.7386779353669659 		Uiso   ? 		C 		-0.14531
C 1.0  		0.381329472829991 		0.02253138394576412  0.7386779353669659 		Uiso   ? 		C 		-0.14531
C 1.0  		0.8813747249372436 		0.5223872966921278  0.7386779353669659 		Uiso   ? 		C 		-0.14531
C 1.0  		0.8813747249372436 		0.02253138394576412  0.7386779353669659 		Uiso   ? 		C 		-0.14531
C 1.0  		0.631257429203173 		0.272459340318946  0.7386779353669659 		Uiso   ? 		C 		-0.14531
C 1.0  		0.38132947282999097 		0.5223872966921278  0.7386779353669659 		Uiso   ? 		C 		-0.14531
C 1.0  		0.13140151645680917 		0.7725045924261984  0.7386779353669659 		Uiso   ? 		C 		-0.14531
C 1.0  		0.0999711825492727 		0.3667503420415555  0.1626233927306201 		Uiso   ? 		C 		0.30416
C 1.0  		0.6000164346565252 		0.8667955941488079  0.1626233927306201 		Uiso   ? 		C 		0.30416
C 1.0  		0.35008847828334333 		0.11663304630748485  0.1626233927306201 		Uiso   ? 		C 		0.30416
C 1.0  		0.849944391029707 		0.6166782984147373  0.1626233927306201 		Uiso   ? 		C 		0.30416
C 1.0  		0.849944391029707 		0.11663304630748485  0.1626233927306201 		Uiso   ? 		C 		0.30416
C 1.0  		0.6000164346565252 		0.3667503420415555  0.1626233927306201 		Uiso   ? 		C 		0.30416
C 1.0  		0.3500884782833433 		0.6166782984147373  0.1626233927306201 		Uiso   ? 		C 		0.30416
C 1.0  		0.09997118254927267 		0.8667955941488079  0.1626233927306201 		Uiso   ? 		C 		0.30416
C 1.0  		0.09883514638394006 		0.36637166331977794  0.48429996100787304 		Uiso   ? 		C 		0.30220
C 1.0  		0.5988803984911925 		0.8662275760661416  0.48429996100787304 		Uiso   ? 		C 		0.30220
C 1.0  		0.3487631027571219 		0.1162543675857073  0.48429996100787304 		Uiso   ? 		C 		0.30220
C 1.0  		0.8488083548643743 		0.6162996196929598  0.48429996100787304 		Uiso   ? 		C 		0.30220
C 1.0  		0.8488083548643743 		0.1162543675857073  0.48429996100787304 		Uiso   ? 		C 		0.30220
C 1.0  		0.5988803984911925 		0.36637166331977794  0.48429996100787304 		Uiso   ? 		C 		0.30220
C 1.0  		0.34876310275712186 		0.6162996196929598  0.48429996100787304 		Uiso   ? 		C 		0.30220
C 1.0  		0.09883514638394003 		0.8662275760661416  0.48429996100787304 		Uiso   ? 		C 		0.30220
C 1.0  		0.0992138251057176 		0.36561430587622284  0.8063335510035248 		Uiso   ? 		C 		0.30772
C 1.0  		0.5992590772129701 		0.8656595579834753  0.8063335510035248 		Uiso   ? 		C 		0.30772
C 1.0  		0.34914178147889946 		0.11568634950304098  0.8063335510035248 		Uiso   ? 		C 		0.30772
C 1.0  		0.849187033586152 		0.6155422622494047  0.8063335510035248 		Uiso   ? 		C 		0.30772
C 1.0  		0.849187033586152 		0.11568634950304098  0.8063335510035248 		Uiso   ? 		C 		0.30772
C 1.0  		0.5992590772129701 		0.36561430587622284  0.8063335510035248 		Uiso   ? 		C 		0.30772
C 1.0  		0.3491417814788994 		0.6155422622494047  0.8063335510035248 		Uiso   ? 		C 		0.30772
C 1.0  		0.09921382510571758 		0.8656595579834753  0.8063335510035248 		Uiso   ? 		C 		0.30772
C 1.0  		0.8825107611025761 		0.349520460200677  0.16672914249220547 		Uiso   ? 		C 		-0.15006
C 1.0  		0.3826548483562124 		0.8495657123079294  0.16672914249220547 		Uiso   ? 		C 		-0.15006
C 1.0  		0.13253755262214187 		0.09959250382749518  0.16672914249220547 		Uiso   ? 		C 		-0.15006
C 1.0  		0.6325828047293943 		0.5996377559347476  0.16672914249220547 		Uiso   ? 		C 		-0.15006
C 1.0  		0.6325828047293943 		0.09959250382749518  0.16672914249220547 		Uiso   ? 		C 		-0.15006
C 1.0  		0.38265484835621244 		0.349520460200677  0.16672914249220547 		Uiso   ? 		C 		-0.15006
C 1.0  		0.13253755262214184 		0.5996377559347476  0.16672914249220547 		Uiso   ? 		C 		-0.15006
C 1.0  		0.8825107611025761 		0.8495657123079294  0.16672914249220547 		Uiso   ? 		C 		-0.15006
C 1.0  		0.8819427430199099 		0.3497097995615658  0.4892982650654552 		Uiso   ? 		C 		-0.15077
C 1.0  		0.3818974909126573 		0.8497550516688183  0.4892982650654552 		Uiso   ? 		C 		-0.15077
C 1.0  		0.13196953453947555 		0.09978184318838396  0.4892982650654552 		Uiso   ? 		C 		-0.15077
C 1.0  		0.6318254472858392 		0.5996377559347476  0.4892982650654552 		Uiso   ? 		C 		-0.15077
C 1.0  		0.6318254472858392 		0.09978184318838396  0.4892982650654552 		Uiso   ? 		C 		-0.15077
C 1.0  		0.38189749091265734 		0.3497097995615658  0.4892982650654552 		Uiso   ? 		C 		-0.15077
C 1.0  		0.13196953453947552 		0.5996377559347476  0.4892982650654552 		Uiso   ? 		C 		-0.15077
C 1.0  		0.8819427430199099 		0.8497550516688183  0.4892982650654552 		Uiso   ? 		C 		-0.15077
C 1.0  		0.8834574579070201 		0.3502778176442321  0.8097252573283126 		Uiso   ? 		C 		-0.14707
C 1.0  		0.3834122057997675 		0.8503230697514845  0.8097252573283126 		Uiso   ? 		C 		-0.14707
C 1.0  		0.13329491006569696 		0.10034986127105029  0.8097252573283126 		Uiso   ? 		C 		-0.14707
C 1.0  		0.6333401621729494 		0.6003951133783026  0.8097252573283126 		Uiso   ? 		C 		-0.14707
C 1.0  		0.6333401621729494 		0.10034986127105029  0.8097252573283126 		Uiso   ? 		C 		-0.14707
C 1.0  		0.38341220579976754 		0.3502778176442321  0.8097252573283126 		Uiso   ? 		C 		-0.14707
C 1.0  		0.13329491006569694 		0.6003951133783026  0.8097252573283126 		Uiso   ? 		C 		-0.14707
C 1.0  		0.8834574579070201 		0.8503230697514845  0.8097252573283126 		Uiso   ? 		C 		-0.14707
C 1.0  		0.002650751052442813 		0.4008314270015348  0.19796854285209406 		Uiso   ? 		C 		0.65463
C 1.0  		0.5026960031596952 		0.9008766791087872  0.19796854285209406 		Uiso   ? 		C 		0.65463
C 1.0  		0.25276804678651343 		0.15090347062835296  0.19796854285209406 		Uiso   ? 		C 		0.65463
C 1.0  		0.7526239595328771 		0.6507593833747166  0.19796854285209406 		Uiso   ? 		C 		0.65463
C 1.0  		0.7526239595328771 		0.15090347062835296  0.19796854285209406 		Uiso   ? 		C 		0.65463
C 1.0  		0.5026960031596952 		0.4008314270015348  0.19796854285209406 		Uiso   ? 		C 		0.65463
C 1.0  		0.2527680467865134 		0.6507593833747166  0.19796854285209406 		Uiso   ? 		C 		0.65463
C 1.0  		0.0026507510524427826 		0.9008766791087872  0.19796854285209406 		Uiso   ? 		C 		0.65463
C 1.0  		0.0020827329697764908 		0.4000740695579797  0.52160873058054 		Uiso   ? 		C 		0.65466
C 1.0  		0.5021279850770289 		0.900119321665232  0.52160873058054 		Uiso   ? 		C 		0.65466
C 1.0  		0.2522000287038471 		0.1499567738239091  0.52160873058054 		Uiso   ? 		C 		0.65466
C 1.0  		0.7520559414502108 		0.6500020259311615  0.52160873058054 		Uiso   ? 		C 		0.65466
C 1.0  		0.7520559414502108 		0.1499567738239091  0.52160873058054 		Uiso   ? 		C 		0.65466
C 1.0  		0.5021279850770289 		0.4000740695579797  0.52160873058054 		Uiso   ? 		C 		0.65466
C 1.0  		0.25220002870384706 		0.6500020259311615  0.52160873058054 		Uiso   ? 		C 		0.65466
C 1.0  		0.00208273296977646 		0.900119321665232  0.52160873058054 		Uiso   ? 		C 		0.65466
C 1.0  		0.002082732969776491 		0.38795635046109817  0.22153197626641005 		Uiso   ? 		C 		-0.00497
C 1.0  		0.5021279850770289 		0.8880016025683507  0.22153197626641005 		Uiso   ? 		C 		-0.00497
C 1.0  		0.2522000287038471 		0.1380283940879163  0.22153197626641005 		Uiso   ? 		C 		-0.00497
C 1.0  		0.7520559414502108 		0.6380736461951688  0.22153197626641005 		Uiso   ? 		C 		-0.00497
C 1.0  		0.7520559414502108 		0.1380283940879163  0.22153197626641005 		Uiso   ? 		C 		-0.00497
C 1.0  		0.5021279850770289 		0.38795635046109817  0.22153197626641005 		Uiso   ? 		C 		-0.00497
C 1.0  		0.25220002870384706 		0.6380736461951688  0.22153197626641005 		Uiso   ? 		C 		-0.00497
C 1.0  		0.002082732969776461 		0.8880016025683507  0.22153197626641005 		Uiso   ? 		C 		-0.00497
C 1.0  		0.002082732969776491 		0.3870096536566543  0.5451721639948559 		Uiso   ? 		C 		-0.00656
C 1.0  		0.5019386457161401 		0.8870549057639067  0.5451721639948559 		Uiso   ? 		C 		-0.00656
C 1.0  		0.25201068934295834 		0.13708169728347244  0.5451721639948559 		Uiso   ? 		C 		-0.00656
C 1.0  		0.7520559414502108 		0.6371269493907249  0.5451721639948559 		Uiso   ? 		C 		-0.00656
C 1.0  		0.7520559414502108 		0.13708169728347244  0.5451721639948559 		Uiso   ? 		C 		-0.00656
C 1.0  		0.5019386457161401 		0.3870096536566543  0.5451721639948559 		Uiso   ? 		C 		-0.00656
C 1.0  		0.2520106893429583 		0.6371269493907249  0.5451721639948559 		Uiso   ? 		C 		-0.00656
C 1.0  		0.002082732969776461 		0.8870549057639067  0.5451721639948559 		Uiso   ? 		C 		-0.00656
C 1.0  		0.8510804271950396 		0.24708786595985022  0.19707598855609726 		Uiso   ? 		C 		0.65002
C 1.0  		0.35103517508778714 		0.7471331180671027  0.19707598855609726 		Uiso   ? 		C 		0.65002
C 1.0  		0.10110721871460533 		0.9970610744402845  0.19707598855609726 		Uiso   ? 		C 		0.65002
C 1.0  		0.6011524708218577 		0.4972051616939208  0.19707598855609726 		Uiso   ? 		C 		0.65002
C 1.0  		0.6011524708218576 		0.9970610744402845  0.19707598855609726 		Uiso   ? 		C 		0.65002
C 1.0  		0.3510351750877872 		0.24708786595985022  0.19707598855609726 		Uiso   ? 		C 		0.65002
C 1.0  		0.10110721871460536 		0.4972051616939208  0.19707598855609726 		Uiso   ? 		C 		0.65002
C 1.0  		0.8510804271950396 		0.7471331180671027  0.19707598855609726 		Uiso   ? 		C 		0.65002
C 1.0  		0.8510804271950396 		0.247277205320739  0.5207161762845431 		Uiso   ? 		C 		0.65444
C 1.0  		0.35103517508778714 		0.7473224574279914  0.5207161762845431 		Uiso   ? 		C 		0.65444
C 1.0  		0.10091787935371656 		0.9972504138011733  0.5207161762845431 		Uiso   ? 		C 		0.65444
C 1.0  		0.600963131460969 		0.4972051616939208  0.5207161762845431 		Uiso   ? 		C 		0.65444
C 1.0  		0.6009631314609689 		0.9972504138011733  0.5207161762845431 		Uiso   ? 		C 		0.65444
C 1.0  		0.3510351750877872 		0.247277205320739  0.5207161762845431 		Uiso   ? 		C 		0.65444
C 1.0  		0.10091787935371659 		0.4972051616939208  0.5207161762845431 		Uiso   ? 		C 		0.65444
C 1.0  		0.8510804271950396 		0.7473224574279914  0.5207161762845431 		Uiso   ? 		C 		0.65444
C 1.0  		0.8641448430963651 		0.24595182979451757  0.21992537853361577 		Uiso   ? 		C 		-0.16762
C 1.0  		0.3640995909891126 		0.7459970819017699  0.21992537853361577 		Uiso   ? 		C 		-0.16762
C 1.0  		0.11417163461593073 		0.9959250382749518  0.21992537853361577 		Uiso   ? 		C 		-0.16762
C 1.0  		0.6140275473622945 		0.49587978616769945  0.21992537853361577 		Uiso   ? 		C 		-0.16762
C 1.0  		0.6140275473622944 		0.9959250382749518  0.21992537853361577 		Uiso   ? 		C 		-0.16762
C 1.0  		0.36409959098911265 		0.24595182979451757  0.21992537853361577 		Uiso   ? 		C 		-0.16762
C 1.0  		0.11417163461593076 		0.49587978616769945  0.21992537853361577 		Uiso   ? 		C 		-0.16762
C 1.0  		0.8641448430963651 		0.7459970819017699  0.21992537853361577 		Uiso   ? 		C 		-0.16762
C 1.0  		0.8637661643745875 		0.2465198478771839  0.543744077121261 		Uiso   ? 		C 		-0.16422
C 1.0  		0.36391025162822377 		0.7465650999844363  0.543744077121261 		Uiso   ? 		C 		-0.16422
C 1.0  		0.11379295589415318 		0.9964930563576181  0.543744077121261 		Uiso   ? 		C 		-0.16422
C 1.0  		0.6138382080014056 		0.4964478042503657  0.543744077121261 		Uiso   ? 		C 		-0.16422
C 1.0  		0.6138382080014055 		0.9964930563576181  0.543744077121261 		Uiso   ? 		C 		-0.16422
C 1.0  		0.3639102516282238 		0.2465198478771839  0.543744077121261 		Uiso   ? 		C 		-0.16422
C 1.0  		0.11379295589415321 		0.4964478042503657  0.543744077121261 		Uiso   ? 		C 		-0.16422
C 1.0  		0.8637661643745875 		0.7465650999844363  0.543744077121261 		Uiso   ? 		C 		-0.16422
C 1.0  		0.9794525138776285 		0.13291623134391942  0.3941519771121945 		Uiso   ? 		C 		-0.21841
C 1.0  		0.47959660113126473 		0.6329614834511719  0.3941519771121945 		Uiso   ? 		C 		-0.21841
C 1.0  		0.22947930539719416 		0.8828894398243538  0.3941519771121945 		Uiso   ? 		C 		-0.21841
C 1.0  		0.7295245575044467 		0.38303352707799004  0.3941519771121945 		Uiso   ? 		C 		-0.21841
C 1.0  		0.7295245575044467 		0.8828894398243538  0.3941519771121945 		Uiso   ? 		C 		-0.21841
C 1.0  		0.4795966011312648 		0.13291623134391942  0.3941519771121945 		Uiso   ? 		C 		-0.21841
C 1.0  		0.2294793053971942 		0.38303352707799004  0.3941519771121945 		Uiso   ? 		C 		-0.21841
C 1.0  		0.9794525138776285 		0.6329614834511719  0.3941519771121945 		Uiso   ? 		C 		-0.21841
C 1.0  		0.9796418532385174 		0.13272689198303064  0.7188632299958366 		Uiso   ? 		C 		-0.21572
C 1.0  		0.47959660113126473 		0.6327721440902832  0.7188632299958366 		Uiso   ? 		C 		-0.21572
C 1.0  		0.22966864475808296 		0.8828894398243538  0.7188632299958366 		Uiso   ? 		C 		-0.21572
C 1.0  		0.7297138968653355 		0.3828441877171012  0.7188632299958366 		Uiso   ? 		C 		-0.21572
C 1.0  		0.7297138968653355 		0.8828894398243538  0.7188632299958366 		Uiso   ? 		C 		-0.21572
C 1.0  		0.4795966011312648 		0.13272689198303064  0.7188632299958366 		Uiso   ? 		C 		-0.21572
C 1.0  		0.229668644758083 		0.3828441877171012  0.7188632299958366 		Uiso   ? 		C 		-0.21572
C 1.0  		0.9796418532385174 		0.6327721440902832  0.7188632299958366 		Uiso   ? 		C 		-0.21572
C 1.0  		0.119851815442594 		0.22323110648786468  0.39361644453459643 		Uiso   ? 		C 		0.31253
C 1.0  		0.6198970675498464 		0.7232763585951171  0.39361644453459643 		Uiso   ? 		C 		0.31253
C 1.0  		0.3697797718157758 		0.9732043149682988  0.39361644453459643 		Uiso   ? 		C 		0.31253
C 1.0  		0.8698250239230283 		0.47315906286104653  0.39361644453459643 		Uiso   ? 		C 		0.31253
C 1.0  		0.8698250239230282 		0.9732043149682988  0.39361644453459643 		Uiso   ? 		C 		0.31253
C 1.0  		0.6198970675498464 		0.22323110648786468  0.39361644453459643 		Uiso   ? 		C 		0.31253
C 1.0  		0.3697797718157758 		0.47315906286104653  0.39361644453459643 		Uiso   ? 		C 		0.31253
C 1.0  		0.11985181544259398 		0.7232763585951171  0.39361644453459643 		Uiso   ? 		C 		0.31253
C 1.0  		0.12041983352526033 		0.2245564820140861  0.7183276974182385 		Uiso   ? 		C 		0.30827
C 1.0  		0.620275746271624 		0.7246017341213385  0.7183276974182385 		Uiso   ? 		C 		0.30827
C 1.0  		0.3703477898984421 		0.9745296904945204  0.7183276974182385 		Uiso   ? 		C 		0.30827
C 1.0  		0.8703930420056947 		0.4744844383872679  0.7183276974182385 		Uiso   ? 		C 		0.30827
C 1.0  		0.8703930420056946 		0.9745296904945204  0.7183276974182385 		Uiso   ? 		C 		0.30827
C 1.0  		0.620275746271624 		0.2245564820140861  0.7183276974182385 		Uiso   ? 		C 		0.30827
C 1.0  		0.3703477898984421 		0.4744844383872679  0.7183276974182385 		Uiso   ? 		C 		0.30827
C 1.0  		0.1204198335252603 		0.7246017341213385  0.7183276974182385 		Uiso   ? 		C 		0.30827
C 1.0  		0.024235438193763063 		0.3690224143722208  0.25419946349989353 		Uiso   ? 		C 		-0.07182
C 1.0  		0.5242806903010155 		0.8690676664794732  0.25419946349989353 		Uiso   ? 		C 		-0.07182
C 1.0  		0.2741633945669449 		0.11909445799903892  0.25419946349989353 		Uiso   ? 		C 		-0.07182
C 1.0  		0.7742086466741974 		0.6191397101062913  0.25419946349989353 		Uiso   ? 		C 		-0.07182
C 1.0  		0.7742086466741974 		0.11909445799903892  0.25419946349989353 		Uiso   ? 		C 		-0.07182
C 1.0  		0.5242806903010155 		0.3690224143722208  0.25419946349989353 		Uiso   ? 		C 		-0.07182
C 1.0  		0.27416339456694483 		0.6191397101062913  0.25419946349989353 		Uiso   ? 		C 		-0.07182
C 1.0  		0.024235438193763035 		0.8690676664794732  0.25419946349989353 		Uiso   ? 		C 		-0.07182
C 1.0  		0.024046098832874292 		0.3682650569286657  0.5776611403691402 		Uiso   ? 		C 		-0.07254
C 1.0  		0.5240913509401267 		0.8681209696750293  0.5776611403691402 		Uiso   ? 		C 		-0.07254
C 1.0  		0.2741633945669449 		0.11814776119459505  0.5776611403691402 		Uiso   ? 		C 		-0.07254
C 1.0  		0.7740193073133086 		0.6181930133018475  0.5776611403691402 		Uiso   ? 		C 		-0.07254
C 1.0  		0.7740193073133086 		0.11814776119459505  0.5776611403691402 		Uiso   ? 		C 		-0.07254
C 1.0  		0.5240913509401267 		0.3682650569286657  0.5776611403691402 		Uiso   ? 		C 		-0.07254
C 1.0  		0.27416339456694483 		0.6181930133018475  0.5776611403691402 		Uiso   ? 		C 		-0.07254
C 1.0  		0.02404609883287426 		0.8681209696750293  0.5776611403691402 		Uiso   ? 		C 		-0.07254
C 1.0  		0.8808067068545772 		0.2696192499056143  0.25366393092229544 		Uiso   ? 		C 		-0.14209
C 1.0  		0.3807614547473247 		0.7696645020128668  0.25366393092229544 		Uiso   ? 		C 		-0.14209
C 1.0  		0.1308334983741429 		0.019691293532432506  0.25366393092229544 		Uiso   ? 		C 		-0.14209
C 1.0  		0.6308787504813953 		0.5195472062787962  0.25366393092229544 		Uiso   ? 		C 		-0.14209
C 1.0  		0.6308787504813953 		0.019691293532432506  0.25366393092229544 		Uiso   ? 		C 		-0.14209
C 1.0  		0.38076145474732476 		0.2696192499056143  0.25366393092229544 		Uiso   ? 		C 		-0.14209
C 1.0  		0.13083349837414288 		0.5195472062787962  0.25366393092229544 		Uiso   ? 		C 		-0.14209
C 1.0  		0.8808067068545772 		0.7696645020128668  0.25366393092229544 		Uiso   ? 		C 		-0.14209
C 1.0  		0.8815640642981322 		0.2701872679882807  0.5767685860731433 		Uiso   ? 		C 		-0.13903
C 1.0  		0.38170815155176857 		0.770232520095533  0.5767685860731433 		Uiso   ? 		C 		-0.13903
C 1.0  		0.131590855817698 		0.020259311615098828  0.5767685860731433 		Uiso   ? 		C 		-0.13903
C 1.0  		0.6316361079249504 		0.5201152243614625  0.5767685860731433 		Uiso   ? 		C 		-0.13903
C 1.0  		0.6316361079249504 		0.020259311615098828  0.5767685860731433 		Uiso   ? 		C 		-0.13903
C 1.0  		0.3817081515517686 		0.2701872679882807  0.5767685860731433 		Uiso   ? 		C 		-0.13903
C 1.0  		0.13159085581769797 		0.5201152243614625  0.5767685860731433 		Uiso   ? 		C 		-0.13903
C 1.0  		0.8815640642981322 		0.770232520095533  0.5767685860731433 		Uiso   ? 		C 		-0.13903
C 1.0  		0.09883514638394007 		0.11644370694659607  0.3227476334324491 		Uiso   ? 		C 		0.30184
C 1.0  		0.5988803984911925 		0.6164889590538485  0.3227476334324491 		Uiso   ? 		C 		0.30184
C 1.0  		0.34876310275712186 		0.8664169154270303  0.3227476334324491 		Uiso   ? 		C 		0.30184
C 1.0  		0.8488083548643743 		0.36656100268066666  0.3227476334324491 		Uiso   ? 		C 		0.30184
C 1.0  		0.8488083548643743 		0.8664169154270303  0.3227476334324491 		Uiso   ? 		C 		0.30184
C 1.0  		0.5988803984911925 		0.11644370694659607  0.3227476334324491 		Uiso   ? 		C 		0.30184
C 1.0  		0.3487631027571219 		0.36656100268066666  0.3227476334324491 		Uiso   ? 		C 		0.30184
C 1.0  		0.09883514638394005 		0.6164889590538485  0.3227476334324491 		Uiso   ? 		C 		0.30184
C 1.0  		0.0986458070230513 		0.1162543675857073  0.6465663320200944 		Uiso   ? 		C 		0.30378
C 1.0  		0.5986910591303037 		0.6162996196929598  0.6465663320200944 		Uiso   ? 		C 		0.30378
C 1.0  		0.34876310275712186 		0.8664169154270303  0.6465663320200944 		Uiso   ? 		C 		0.30378
C 1.0  		0.8486190155034856 		0.36637166331977794  0.6465663320200944 		Uiso   ? 		C 		0.30378
C 1.0  		0.8486190155034856 		0.8664169154270303  0.6465663320200944 		Uiso   ? 		C 		0.30378
C 1.0  		0.5986910591303037 		0.1162543675857073  0.6465663320200944 		Uiso   ? 		C 		0.30378
C 1.0  		0.3487631027571219 		0.36637166331977794  0.6465663320200944 		Uiso   ? 		C 		0.30378
C 1.0  		0.09864580702305127 		0.6162996196929598  0.6465663320200944 		Uiso   ? 		C 		0.30378
C 1.0  		0.13196953453947552 		0.34989913892245456  0.32810295920843 		Uiso   ? 		C 		-0.15360
C 1.0  		0.632014786646728 		0.849944391029707  0.32810295920843 		Uiso   ? 		C 		-0.15360
C 1.0  		0.3820868302735461 		0.09997118254927273  0.32810295920843 		Uiso   ? 		C 		-0.15360
C 1.0  		0.8819427430199099 		0.6000164346565252  0.32810295920843 		Uiso   ? 		C 		-0.15360
C 1.0  		0.8819427430199099 		0.09997118254927273  0.32810295920843 		Uiso   ? 		C 		-0.15360
C 1.0  		0.632014786646728 		0.34989913892245456  0.32810295920843 		Uiso   ? 		C 		-0.15360
C 1.0  		0.38208683027354606 		0.6000164346565252  0.32810295920843 		Uiso   ? 		C 		-0.15360
C 1.0  		0.1319695345394755 		0.849944391029707  0.32810295920843 		Uiso   ? 		C 		-0.15360
C 1.0  		0.13196953453947552 		0.349520460200677  0.6524571903736733 		Uiso   ? 		C 		-0.15420
C 1.0  		0.6318254472858392 		0.8495657123079294  0.6524571903736733 		Uiso   ? 		C 		-0.15420
C 1.0  		0.38189749091265734 		0.09959250382749518  0.6524571903736733 		Uiso   ? 		C 		-0.15420
C 1.0  		0.8819427430199099 		0.5996377559347476  0.6524571903736733 		Uiso   ? 		C 		-0.15420
C 1.0  		0.8819427430199099 		0.09959250382749518  0.6524571903736733 		Uiso   ? 		C 		-0.15420
C 1.0  		0.6318254472858392 		0.349520460200677  0.6524571903736733 		Uiso   ? 		C 		-0.15420
C 1.0  		0.3818974909126573 		0.5996377559347476  0.6524571903736733 		Uiso   ? 		C 		-0.15420
C 1.0  		0.1319695345394755 		0.8495657123079294  0.6524571903736733 		Uiso   ? 		C 		-0.15420
C 1.0  		0.0026507510524428285 		0.1499567738239091  0.35952087042751796 		Uiso   ? 		C 		0.65082
C 1.0  		0.5026960031596952 		0.6500020259311615  0.35952087042751796 		Uiso   ? 		C 		0.65082
C 1.0  		0.2527680467865134 		0.8999299823043434  0.35952087042751796 		Uiso   ? 		C 		0.65082
C 1.0  		0.7526239595328771 		0.3998847301970909  0.35952087042751796 		Uiso   ? 		C 		0.65082
C 1.0  		0.7526239595328771 		0.8999299823043434  0.35952087042751796 		Uiso   ? 		C 		0.65082
C 1.0  		0.5026960031596952 		0.1499567738239091  0.35952087042751796 		Uiso   ? 		C 		0.65082
C 1.0  		0.25276804678651343 		0.3998847301970909  0.35952087042751796 		Uiso   ? 		C 		0.65082
C 1.0  		0.0026507510524427977 		0.6500020259311615  0.35952087042751796 		Uiso   ? 		C 		0.65082
C 1.0  		0.002082732969776506 		0.1499567738239091  0.6838751015927613 		Uiso   ? 		C 		0.65319
C 1.0  		0.5021279850770289 		0.6500020259311615  0.6838751015927613 		Uiso   ? 		C 		0.65319
C 1.0  		0.25220002870384706 		0.8999299823043434  0.6838751015927613 		Uiso   ? 		C 		0.65319
C 1.0  		0.7520559414502108 		0.3998847301970909  0.6838751015927613 		Uiso   ? 		C 		0.65319
C 1.0  		0.7520559414502108 		0.8999299823043434  0.6838751015927613 		Uiso   ? 		C 		0.65319
C 1.0  		0.5021279850770289 		0.1499567738239091  0.6838751015927613 		Uiso   ? 		C 		0.65319
C 1.0  		0.2522000287038471 		0.3998847301970909  0.6838751015927613 		Uiso   ? 		C 		0.65319
C 1.0  		0.002082732969776475 		0.6500020259311615  0.6838751015927613 		Uiso   ? 		C 		0.65319
C 1.0  		0.002272072330665281 		0.13689235792258367  0.38272728212343526 		Uiso   ? 		C 		-0.00490
C 1.0  		0.5023173244379178 		0.6369376100298361  0.38272728212343526 		Uiso   ? 		C 		-0.00490
C 1.0  		0.25220002870384706 		0.8870549057639067  0.38272728212343526 		Uiso   ? 		C 		-0.00490
C 1.0  		0.7522452808110995 		0.3870096536566543  0.38272728212343526 		Uiso   ? 		C 		-0.00490
C 1.0  		0.7522452808110995 		0.8870549057639067  0.38272728212343526 		Uiso   ? 		C 		-0.00490
C 1.0  		0.5023173244379178 		0.13689235792258367  0.38272728212343526 		Uiso   ? 		C 		-0.00490
C 1.0  		0.2522000287038471 		0.3870096536566543  0.38272728212343526 		Uiso   ? 		C 		-0.00490
C 1.0  		0.0022720723306652504 		0.6369376100298361  0.38272728212343526 		Uiso   ? 		C 		-0.00490
C 1.0  		0.002272072330665281 		0.13689235792258367  0.707260024147878 		Uiso   ? 		C 		-0.00901
C 1.0  		0.5023173244379178 		0.6369376100298361  0.707260024147878 		Uiso   ? 		C 		-0.00901
C 1.0  		0.25220002870384706 		0.8870549057639067  0.707260024147878 		Uiso   ? 		C 		-0.00901
C 1.0  		0.7522452808110995 		0.3870096536566543  0.707260024147878 		Uiso   ? 		C 		-0.00901
C 1.0  		0.7522452808110995 		0.8870549057639067  0.707260024147878 		Uiso   ? 		C 		-0.00901
C 1.0  		0.5023173244379178 		0.13689235792258367  0.707260024147878 		Uiso   ? 		C 		-0.00901
C 1.0  		0.2522000287038471 		0.3870096536566543  0.707260024147878 		Uiso   ? 		C 		-0.00901
C 1.0  		0.0022720723306652504 		0.6369376100298361  0.707260024147878 		Uiso   ? 		C 		-0.00901
C 1.0  		0.1009178793537166 		0.24746654468162776  0.35916384870911927 		Uiso   ? 		C 		0.65640
C 1.0  		0.600963131460969 		0.7473224574279914  0.35916384870911927 		Uiso   ? 		C 		0.65640
C 1.0  		0.35103517508778714 		0.997439753162062  0.35916384870911927 		Uiso   ? 		C 		0.65640
C 1.0  		0.8508910878341508 		0.49739450105480953  0.35916384870911927 		Uiso   ? 		C 		0.65640
C 1.0  		0.8508910878341507 		0.997439753162062  0.35916384870911927 		Uiso   ? 		C 		0.65640
C 1.0  		0.600963131460969 		0.24746654468162776  0.35916384870911927 		Uiso   ? 		C 		0.65640
C 1.0  		0.35103517508778714 		0.49739450105480953  0.35916384870911927 		Uiso   ? 		C 		0.65640
C 1.0  		0.10091787935371657 		0.7473224574279914  0.35916384870911927 		Uiso   ? 		C 		0.65640
C 1.0  		0.10053920063193905 		0.247277205320739  0.6833395690151632 		Uiso   ? 		C 		0.65881
C 1.0  		0.6005844527391915 		0.7473224574279914  0.6833395690151632 		Uiso   ? 		C 		0.65881
C 1.0  		0.3504671570051208 		0.9972504138011733  0.6833395690151632 		Uiso   ? 		C 		0.65881
C 1.0  		0.8505124091123734 		0.4972051616939208  0.6833395690151632 		Uiso   ? 		C 		0.65881
C 1.0  		0.8505124091123732 		0.9972504138011733  0.6833395690151632 		Uiso   ? 		C 		0.65881
C 1.0  		0.6005844527391915 		0.247277205320739  0.6833395690151632 		Uiso   ? 		C 		0.65881
C 1.0  		0.3504671570051208 		0.4972051616939208  0.6833395690151632 		Uiso   ? 		C 		0.65881
C 1.0  		0.10053920063193902 		0.7473224574279914  0.6833395690151632 		Uiso   ? 		C 		0.65881
C 1.0  		0.11379295589415322 		0.2465198478771839  0.3821917495458371 		Uiso   ? 		C 		-0.16489
C 1.0  		0.6138382080014056 		0.7465650999844363  0.3821917495458371 		Uiso   ? 		C 		-0.16489
C 1.0  		0.36372091226733505 		0.996682395718507  0.3821917495458371 		Uiso   ? 		C 		-0.16489
C 1.0  		0.8637661643745875 		0.49663714361125455  0.3821917495458371 		Uiso   ? 		C 		-0.16489
C 1.0  		0.8637661643745874 		0.996682395718507  0.3821917495458371 		Uiso   ? 		C 		-0.16489
C 1.0  		0.6138382080014056 		0.2465198478771839  0.3821917495458371 		Uiso   ? 		C 		-0.16489
C 1.0  		0.36372091226733505 		0.49663714361125455  0.3821917495458371 		Uiso   ? 		C 		-0.16489
C 1.0  		0.1137929558941532 		0.7465650999844363  0.3821917495458371 		Uiso   ? 		C 		-0.16489
C 1.0  		0.11360361653326445 		0.247277205320739  0.7063674698518811 		Uiso   ? 		C 		-0.16715
C 1.0  		0.6136488686405169 		0.7473224574279914  0.7063674698518811 		Uiso   ? 		C 		-0.16715
C 1.0  		0.36372091226733505 		0.9972504138011733  0.7063674698518811 		Uiso   ? 		C 		-0.16715
C 1.0  		0.8635768250136987 		0.4972051616939208  0.7063674698518811 		Uiso   ? 		C 		-0.16715
C 1.0  		0.8635768250136986 		0.9972504138011733  0.7063674698518811 		Uiso   ? 		C 		-0.16715
C 1.0  		0.6136488686405169 		0.247277205320739  0.7063674698518811 		Uiso   ? 		C 		-0.16715
C 1.0  		0.36372091226733505 		0.4972051616939208  0.7063674698518811 		Uiso   ? 		C 		-0.16715
C 1.0  		0.11360361653326442 		0.7473224574279914  0.7063674698518811 		Uiso   ? 		C 		-0.16715
C 1.0  		0.02101666905865392 		0.11739040375103994  0.2318856060999731 		Uiso   ? 		C 		-0.21666
C 1.0  		0.5210619211659063 		0.6174356558582924  0.2318856060999731 		Uiso   ? 		C 		-0.21666
C 1.0  		0.27094462543183573 		0.8673636122314743  0.2318856060999731 		Uiso   ? 		C 		-0.21666
C 1.0  		0.7709898775390882 		0.3675076994851106  0.2318856060999731 		Uiso   ? 		C 		-0.21666
C 1.0  		0.7709898775390882 		0.8673636122314743  0.2318856060999731 		Uiso   ? 		C 		-0.21666
C 1.0  		0.5210619211659063 		0.11739040375103994  0.2318856060999731 		Uiso   ? 		C 		-0.21666
C 1.0  		0.2709446254318358 		0.3675076994851106  0.2318856060999731 		Uiso   ? 		C 		-0.21666
C 1.0  		0.02101666905865389 		0.6174356558582924  0.2318856060999731 		Uiso   ? 		C 		-0.21666
C 1.0  		0.020827329697765146 		0.1177690824728175  0.5560613264060171 		Uiso   ? 		C 		-0.21731
C 1.0  		0.5206832424441288 		0.6176249952191811  0.5560613264060171 		Uiso   ? 		C 		-0.21731
C 1.0  		0.2707552860709469 		0.8677422909532518  0.5560613264060171 		Uiso   ? 		C 		-0.21731
C 1.0  		0.7708005381781994 		0.3676970388459993  0.5560613264060171 		Uiso   ? 		C 		-0.21731
C 1.0  		0.7708005381781994 		0.8677422909532518  0.5560613264060171 		Uiso   ? 		C 		-0.21731
C 1.0  		0.5206832424441288 		0.1177690824728175  0.5560613264060171 		Uiso   ? 		C 		-0.21731
C 1.0  		0.27075528607094695 		0.3676970388459993  0.5560613264060171 		Uiso   ? 		C 		-0.21731
C 1.0  		0.020827329697765115 		0.6176249952191811  0.5560613264060171 		Uiso   ? 		C 		-0.21731
C 1.0  		0.1295081228479215 		0.2768141456193878  0.23117156266317565 		Uiso   ? 		C 		0.31282
C 1.0  		0.6295533749551739 		0.7768593977266401  0.23117156266317565 		Uiso   ? 		C 		0.31282
C 1.0  		0.37962541858199206 		0.02688618924620592  0.23117156266317565 		Uiso   ? 		C 		0.31282
C 1.0  		0.8796706706892445 		0.5269314413534584  0.23117156266317565 		Uiso   ? 		C 		0.31282
C 1.0  		0.8796706706892445 		0.02688618924620592  0.23117156266317565 		Uiso   ? 		C 		0.31282
C 1.0  		0.6295533749551739 		0.2768141456193878  0.23117156266317565 		Uiso   ? 		C 		0.31282
C 1.0  		0.379625418581992 		0.5269314413534584  0.23117156266317565 		Uiso   ? 		C 		0.31282
C 1.0  		0.12950812284792146 		0.7768593977266401  0.23117156266317565 		Uiso   ? 		C 		0.31282
C 1.0  		0.13026548029147655 		0.2768141456193878  0.5551687721100202 		Uiso   ? 		C 		0.31110
C 1.0  		0.630310732398729 		0.7766700583657514  0.5551687721100202 		Uiso   ? 		C 		0.31110
C 1.0  		0.38019343666465844 		0.026696849885317148  0.5551687721100202 		Uiso   ? 		C 		0.31110
C 1.0  		0.8802386887719108 		0.5267421019925695  0.5551687721100202 		Uiso   ? 		C 		0.31110
C 1.0  		0.8802386887719108 		0.026696849885317148  0.5551687721100202 		Uiso   ? 		C 		0.31110
C 1.0  		0.630310732398729 		0.2768141456193878  0.5551687721100202 		Uiso   ? 		C 		0.31110
C 1.0  		0.3801934366646584 		0.5267421019925695  0.5551687721100202 		Uiso   ? 		C 		0.31110
C 1.0  		0.13026548029147653 		0.7766700583657514  0.5551687721100202 		Uiso   ? 		C 		0.31110
C 1.0  		0.975665726659853 		0.381329472829991  0.4157517910753175 		Uiso   ? 		C 		-0.07381
C 1.0  		0.47562047455260054 		0.8813747249372436  0.4157517910753175 		Uiso   ? 		C 		-0.07381
C 1.0  		0.22569251817941874 		0.13121217709592045  0.4157517910753175 		Uiso   ? 		C 		-0.07381
C 1.0  		0.7255484309257824 		0.631257429203173  0.4157517910753175 		Uiso   ? 		C 		-0.07381
C 1.0  		0.7255484309257824 		0.13121217709592045  0.4157517910753175 		Uiso   ? 		C 		-0.07381
C 1.0  		0.4756204745526006 		0.381329472829991  0.4157517910753175 		Uiso   ? 		C 		-0.07381
C 1.0  		0.2256925181794187 		0.631257429203173  0.4157517910753175 		Uiso   ? 		C 		-0.07381
C 1.0  		0.975665726659853 		0.8813747249372436  0.4157517910753175 		Uiso   ? 		C 		-0.07381
C 1.0  		0.9758550660207418 		0.38038277602554715  0.7404630439589596 		Uiso   ? 		C 		-0.07662
C 1.0  		0.47580981391348925 		0.8804280281327997  0.7404630439589596 		Uiso   ? 		C 		-0.07662
C 1.0  		0.22569251817941874 		0.13045481965236536  0.7404630439589596 		Uiso   ? 		C 		-0.07662
C 1.0  		0.7257377702866712 		0.630310732398729  0.7404630439589596 		Uiso   ? 		C 		-0.07662
C 1.0  		0.7257377702866712 		0.13045481965236536  0.7404630439589596 		Uiso   ? 		C 		-0.07662
C 1.0  		0.4758098139134893 		0.38038277602554715  0.7404630439589596 		Uiso   ? 		C 		-0.07662
C 1.0  		0.2256925181794187 		0.630310732398729  0.7404630439589596 		Uiso   ? 		C 		-0.07662
C 1.0  		0.9758550660207418 		0.8804280281327997  0.7404630439589596 		Uiso   ? 		C 		-0.07662
C 1.0  		0.869257005840362 		0.22966864475808302  0.4153947693569187 		Uiso   ? 		C 		-0.13465
C 1.0  		0.36940109309399827 		0.7297138968653355  0.4153947693569187 		Uiso   ? 		C 		-0.13465
C 1.0  		0.11928379735992764 		0.979831192599406  0.4153947693569187 		Uiso   ? 		C 		-0.13465
C 1.0  		0.6193290494671801 		0.47978594049215356  0.4153947693569187 		Uiso   ? 		C 		-0.13465
C 1.0  		0.61932904946718 		0.979831192599406  0.4153947693569187 		Uiso   ? 		C 		-0.13465
C 1.0  		0.3694010930939983 		0.22966864475808302  0.4153947693569187 		Uiso   ? 		C 		-0.13465
C 1.0  		0.11928379735992767 		0.47978594049215356  0.4153947693569187 		Uiso   ? 		C 		-0.13465
C 1.0  		0.869257005840362 		0.7297138968653355  0.4153947693569187 		Uiso   ? 		C 		-0.13465
C 1.0  		0.8688783271185845 		0.22815392987097283  0.7384994245077665 		Uiso   ? 		C 		-0.13842
C 1.0  		0.3688330750113319 		0.7281991819782253  0.7384994245077665 		Uiso   ? 		C 		-0.13842
C 1.0  		0.11871577927726132 		0.9781271383514072  0.7384994245077665 		Uiso   ? 		C 		-0.13842
C 1.0  		0.6187610313845138 		0.4780818862441546  0.7384994245077665 		Uiso   ? 		C 		-0.13842
C 1.0  		0.6187610313845137 		0.9781271383514072  0.7384994245077665 		Uiso   ? 		C 		-0.13842
C 1.0  		0.36883307501133195 		0.22815392987097283  0.7384994245077665 		Uiso   ? 		C 		-0.13842
C 1.0  		0.11871577927726135 		0.4780818862441546  0.7384994245077665 		Uiso   ? 		C 		-0.13842
C 1.0  		0.8688783271185845 		0.7281991819782253  0.7384994245077665 		Uiso   ? 		C 		-0.13842
C 1.0  		0.9014446971914536 		0.13178019517858677  0.16083828413862647 		Uiso   ? 		C 		-0.15093
C 1.0  		0.4013994450842011 		0.6318254472858392  0.16083828413862647 		Uiso   ? 		C 		-0.15093
C 1.0  		0.15147148871101923 		0.8817534036590211  0.16083828413862647 		Uiso   ? 		C 		-0.15093
C 1.0  		0.6515167408182717 		0.3817081515517686  0.16083828413862647 		Uiso   ? 		C 		-0.15093
C 1.0  		0.6515167408182717 		0.8817534036590211  0.16083828413862647 		Uiso   ? 		C 		-0.15093
C 1.0  		0.40139944508420117 		0.13178019517858677  0.16083828413862647 		Uiso   ? 		C 		-0.15093
C 1.0  		0.15147148871101926 		0.3817081515517686  0.16083828413862647 		Uiso   ? 		C 		-0.15093
C 1.0  		0.9014446971914536 		0.6318254472858392  0.16083828413862647 		Uiso   ? 		C 		-0.15093
C 1.0  		0.8999299823043434 		0.13196953453947555  0.48108676554228447 		Uiso   ? 		C 		-0.15296
C 1.0  		0.39988473019709087 		0.632014786646728  0.48108676554228447 		Uiso   ? 		C 		-0.15296
C 1.0  		0.14976743446302027 		0.8819427430199099  0.48108676554228447 		Uiso   ? 		C 		-0.15296
C 1.0  		0.6498126865702727 		0.3820868302735461  0.48108676554228447 		Uiso   ? 		C 		-0.15296
C 1.0  		0.6498126865702727 		0.8819427430199099  0.48108676554228447 		Uiso   ? 		C 		-0.15296
C 1.0  		0.3998847301970909 		0.13196953453947555  0.48108676554228447 		Uiso   ? 		C 		-0.15296
C 1.0  		0.1497674344630203 		0.3820868302735461  0.48108676554228447 		Uiso   ? 		C 		-0.15296
C 1.0  		0.8999299823043434 		0.632014786646728  0.48108676554228447 		Uiso   ? 		C 		-0.15296
C 1.0  		0.900119321665232 		0.13253755262214187  0.8056195075667272 		Uiso   ? 		C 		-0.15249
C 1.0  		0.40007406955797964 		0.6325828047293943  0.8056195075667272 		Uiso   ? 		C 		-0.15249
C 1.0  		0.1501461131847978 		0.8825107611025761  0.8056195075667272 		Uiso   ? 		C 		-0.15249
C 1.0  		0.6501913652920503 		0.3824655089953237  0.8056195075667272 		Uiso   ? 		C 		-0.15249
C 1.0  		0.6501913652920503 		0.8825107611025761  0.8056195075667272 		Uiso   ? 		C 		-0.15249
C 1.0  		0.4000740695579797 		0.13253755262214187  0.8056195075667272 		Uiso   ? 		C 		-0.15249
C 1.0  		0.15014611318479784 		0.3824655089953237  0.8056195075667272 		Uiso   ? 		C 		-0.15249
C 1.0  		0.900119321665232 		0.6325828047293943  0.8056195075667272 		Uiso   ? 		C 		-0.15249
C 1.0  		0.11757974311192872 		0.15109280998924174  0.1636944578858163 		Uiso   ? 		C 		0.31257
C 1.0  		0.6176249952191811 		0.6509487227356054  0.1636944578858163 		Uiso   ? 		C 		0.31257
C 1.0  		0.36750769948511053 		0.901066018469676  0.1636944578858163 		Uiso   ? 		C 		0.31257
C 1.0  		0.867552951592363 		0.40102076636242356  0.1636944578858163 		Uiso   ? 		C 		0.31257
C 1.0  		0.867552951592363 		0.901066018469676  0.1636944578858163 		Uiso   ? 		C 		0.31257
C 1.0  		0.6176249952191811 		0.15109280998924174  0.1636944578858163 		Uiso   ? 		C 		0.31257
C 1.0  		0.3675076994851106 		0.40102076636242356  0.1636944578858163 		Uiso   ? 		C 		0.31257
C 1.0  		0.11757974311192869 		0.6509487227356054  0.1636944578858163 		Uiso   ? 		C 		0.31257
C 1.0  		0.11625436758570729 		0.15090347062835296  0.4866206021774648 		Uiso   ? 		C 		0.30445
C 1.0  		0.6162996196929598 		0.6509487227356054  0.4866206021774648 		Uiso   ? 		C 		0.30445
C 1.0  		0.3663716633197779 		0.9008766791087872  0.4866206021774648 		Uiso   ? 		C 		0.30445
C 1.0  		0.8664169154270303 		0.4008314270015348  0.4866206021774648 		Uiso   ? 		C 		0.30445
C 1.0  		0.8664169154270303 		0.9008766791087872  0.4866206021774648 		Uiso   ? 		C 		0.30445
C 1.0  		0.6162996196929598 		0.15090347062835296  0.4866206021774648 		Uiso   ? 		C 		0.30445
C 1.0  		0.36637166331977794 		0.4008314270015348  0.4866206021774648 		Uiso   ? 		C 		0.30445
C 1.0  		0.11625436758570726 		0.6509487227356054  0.4866206021774648 		Uiso   ? 		C 		0.30445
C 1.0  		0.11530767078126342 		0.15090347062835296  0.809903768187512 		Uiso   ? 		C 		0.30438
C 1.0  		0.6153529228885158 		0.6509487227356054  0.809903768187512 		Uiso   ? 		C 		0.30438
C 1.0  		0.36523562715444524 		0.9008766791087872  0.809903768187512 		Uiso   ? 		C 		0.30438
C 1.0  		0.8652808792616977 		0.4008314270015348  0.809903768187512 		Uiso   ? 		C 		0.30438
C 1.0  		0.8652808792616977 		0.9008766791087872  0.809903768187512 		Uiso   ? 		C 		0.30438
C 1.0  		0.6153529228885158 		0.15090347062835296  0.809903768187512 		Uiso   ? 		C 		0.30438
C 1.0  		0.3652356271544453 		0.4008314270015348  0.809903768187512 		Uiso   ? 		C 		0.30438
C 1.0  		0.11530767078126339 		0.6509487227356054  0.809903768187512 		Uiso   ? 		C 		0.30438
C 1.0  		0.9981971106056172 		0.09940316446660641  0.197433010274496 		Uiso   ? 		C 		0.65132
C 1.0  		0.4981518584983646 		0.5992590772129701  0.197433010274496 		Uiso   ? 		C 		0.65132
C 1.0  		0.24803456276429403 		0.8493763729470406  0.197433010274496 		Uiso   ? 		C 		0.65132
C 1.0  		0.7480798148715465 		0.34933112083978823  0.197433010274496 		Uiso   ? 		C 		0.65132
C 1.0  		0.7480798148715465 		0.8493763729470406  0.197433010274496 		Uiso   ? 		C 		0.65132
C 1.0  		0.49815185849836463 		0.09940316446660641  0.197433010274496 		Uiso   ? 		C 		0.65132
C 1.0  		0.24803456276429406 		0.34933112083978823  0.197433010274496 		Uiso   ? 		C 		0.65132
C 1.0  		0.9981971106056172 		0.5992590772129701  0.197433010274496 		Uiso   ? 		C 		0.65132
C 1.0  		0.9978184318838395 		0.09997118254927273  0.52160873058054 		Uiso   ? 		C 		0.65363
C 1.0  		0.4977731797765871 		0.5998270952956364  0.52160873058054 		Uiso   ? 		C 		0.65363
C 1.0  		0.24784522340340526 		0.849944391029707  0.52160873058054 		Uiso   ? 		C 		0.65363
C 1.0  		0.7478904755106578 		0.34989913892245456  0.52160873058054 		Uiso   ? 		C 		0.65363
C 1.0  		0.7478904755106578 		0.849944391029707  0.52160873058054 		Uiso   ? 		C 		0.65363
C 1.0  		0.49777317977658714 		0.09997118254927273  0.52160873058054 		Uiso   ? 		C 		0.65363
C 1.0  		0.24784522340340528 		0.34989913892245456  0.52160873058054 		Uiso   ? 		C 		0.65363
C 1.0  		0.9978184318838395 		0.5998270952956364  0.52160873058054 		Uiso   ? 		C 		0.65363
C 1.0  		0.9981971106056172 		0.11246758036793182  0.2208179328296126 		Uiso   ? 		C 		-0.00609
C 1.0  		0.4981518584983646 		0.6125128324751843  0.2208179328296126 		Uiso   ? 		C 		-0.00609
C 1.0  		0.24803456276429403 		0.8624407888483661  0.2208179328296126 		Uiso   ? 		C 		-0.00609
C 1.0  		0.7480798148715465 		0.36239553674111363  0.2208179328296126 		Uiso   ? 		C 		-0.00609
C 1.0  		0.7480798148715465 		0.8624407888483661  0.2208179328296126 		Uiso   ? 		C 		-0.00609
C 1.0  		0.49815185849836463 		0.11246758036793182  0.2208179328296126 		Uiso   ? 		C 		-0.00609
C 1.0  		0.24803456276429406 		0.36239553674111363  0.2208179328296126 		Uiso   ? 		C 		-0.00609
C 1.0  		0.9981971106056172 		0.6125128324751843  0.2208179328296126 		Uiso   ? 		C 		-0.00609
C 1.0  		0.9980077712447283 		0.11284625908970937  0.5449936531356566 		Uiso   ? 		C 		-0.00365
C 1.0  		0.49796251913747586 		0.6128915111969618  0.5449936531356566 		Uiso   ? 		C 		-0.00365
C 1.0  		0.24803456276429403 		0.8628194675701437  0.5449936531356566 		Uiso   ? 		C 		-0.00365
C 1.0  		0.7480798148715465 		0.3627742154628912  0.5449936531356566 		Uiso   ? 		C 		-0.00365
C 1.0  		0.7480798148715465 		0.8628194675701437  0.5449936531356566 		Uiso   ? 		C 		-0.00365
C 1.0  		0.4979625191374759 		0.11284625908970937  0.5449936531356566 		Uiso   ? 		C 		-0.00365
C 1.0  		0.24803456276429406 		0.3627742154628912  0.5449936531356566 		Uiso   ? 		C 		-0.00365
C 1.0  		0.9980077712447283 		0.6128915111969618  0.5449936531356566 		Uiso   ? 		C 		-0.00365
C 1.0  		0.15014611318479784 		0.2529573861474022  0.19761152113369534 		Uiso   ? 		C 		0.65416
C 1.0  		0.6501913652920503 		0.7530026382546546  0.19761152113369534 		Uiso   ? 		C 		0.65416
C 1.0  		0.40026340891886847 		0.003029429774220386  0.19761152113369534 		Uiso   ? 		C 		0.65416
C 1.0  		0.9003086610261208 		0.5030746818814729  0.19761152113369534 		Uiso   ? 		C 		0.65416
C 1.0  		0.9003086610261208 		0.003029429774220386  0.19761152113369534 		Uiso   ? 		C 		0.65416
C 1.0  		0.6501913652920503 		0.2529573861474022  0.19761152113369534 		Uiso   ? 		C 		0.65416
C 1.0  		0.4002634089188684 		0.5030746818814729  0.19761152113369534 		Uiso   ? 		C 		0.65416
C 1.0  		0.1501461131847978 		0.7530026382546546  0.19761152113369534 		Uiso   ? 		C 		0.65416
C 1.0  		0.14919941638035397 		0.25257870742562466  0.5207161762845431 		Uiso   ? 		C 		0.65348
C 1.0  		0.6490553291267176 		0.7524346201719884  0.5207161762845431 		Uiso   ? 		C 		0.65348
C 1.0  		0.3991273727535358 		0.0024614116915540633  0.5207161762845431 		Uiso   ? 		C 		0.65348
C 1.0  		0.8991726248607882 		0.5025066637988065  0.5207161762845431 		Uiso   ? 		C 		0.65348
C 1.0  		0.8991726248607882 		0.0024614116915540633  0.5207161762845431 		Uiso   ? 		C 		0.65348
C 1.0  		0.6490553291267176 		0.25257870742562466  0.5207161762845431 		Uiso   ? 		C 		0.65348
C 1.0  		0.39912737275353577 		0.5025066637988065  0.5207161762845431 		Uiso   ? 		C 		0.65348
C 1.0  		0.14919941638035394 		0.7524346201719884  0.5207161762845431 		Uiso   ? 		C 		0.65348
C 1.0  		0.13689235792258364 		0.2537147435909573  0.22028240025201448 		Uiso   ? 		C 		-0.17263
C 1.0  		0.6369376100298361 		0.7537599956982097  0.22028240025201448 		Uiso   ? 		C 		-0.17263
C 1.0  		0.3870096536566543 		0.0037867872177754823  0.22028240025201448 		Uiso   ? 		C 		-0.17263
C 1.0  		0.8870549057639067 		0.5036426999641391  0.22028240025201448 		Uiso   ? 		C 		-0.17263
C 1.0  		0.8870549057639067 		0.0037867872177754823  0.22028240025201448 		Uiso   ? 		C 		-0.17263
C 1.0  		0.6369376100298361 		0.2537147435909573  0.22028240025201448 		Uiso   ? 		C 		-0.17263
C 1.0  		0.38700965365665424 		0.5036426999641391  0.22028240025201448 		Uiso   ? 		C 		-0.17263
C 1.0  		0.1368923579225836 		0.7537599956982097  0.22028240025201448 		Uiso   ? 		C 		-0.17263
C 1.0  		0.1365136792008061 		0.25352540423006853  0.5439225879804604 		Uiso   ? 		C 		-0.16582
C 1.0  		0.6363695919471698 		0.7533813169764322  0.5439225879804604 		Uiso   ? 		C 		-0.16582
C 1.0  		0.386441635573988 		0.0034081084959979337  0.5439225879804604 		Uiso   ? 		C 		-0.16582
C 1.0  		0.8864868876812405 		0.5034533606032503  0.5439225879804604 		Uiso   ? 		C 		-0.16582
C 1.0  		0.8864868876812405 		0.0034081084959979337  0.5439225879804604 		Uiso   ? 		C 		-0.16582
C 1.0  		0.6363695919471698 		0.25352540423006853  0.5439225879804604 		Uiso   ? 		C 		-0.16582
C 1.0  		0.3864416355739879 		0.5034533606032503  0.5439225879804604 		Uiso   ? 		C 		-0.16582
C 1.0  		0.13651367920080607 		0.7533813169764322  0.5439225879804604 		Uiso   ? 		C 		-0.16582
C 1.0  		0.020448650975987585 		0.36807571756777685  0.3934379336753971 		Uiso   ? 		C 		-0.22077
C 1.0  		0.5204939030832401 		0.8681209696750293  0.3934379336753971 		Uiso   ? 		C 		-0.22077
C 1.0  		0.27056594671005824 		0.11795842183370628  0.3934379336753971 		Uiso   ? 		C 		-0.22077
C 1.0  		0.7704218594564218 		0.6180036739409587  0.3934379336753971 		Uiso   ? 		C 		-0.22077
C 1.0  		0.7704218594564218 		0.11795842183370628  0.3934379336753971 		Uiso   ? 		C 		-0.22077
C 1.0  		0.5204939030832401 		0.36807571756777685  0.3934379336753971 		Uiso   ? 		C 		-0.22077
C 1.0  		0.2705659467100582 		0.6180036739409587  0.3934379336753971 		Uiso   ? 		C 		-0.22077
C 1.0  		0.020448650975987553 		0.8681209696750293  0.3934379336753971 		Uiso   ? 		C 		-0.22077
C 1.0  		0.020259311615098807 		0.36731836012422175  0.7179706756998399 		Uiso   ? 		C 		-0.21945
C 1.0  		0.5203045637223513 		0.8673636122314743  0.7179706756998399 		Uiso   ? 		C 		-0.21945
C 1.0  		0.2703766073491694 		0.11739040375103994  0.7179706756998399 		Uiso   ? 		C 		-0.21945
C 1.0  		0.7704218594564218 		0.6174356558582924  0.7179706756998399 		Uiso   ? 		C 		-0.21945
C 1.0  		0.7704218594564218 		0.11739040375103994  0.7179706756998399 		Uiso   ? 		C 		-0.21945
C 1.0  		0.5203045637223513 		0.36731836012422175  0.7179706756998399 		Uiso   ? 		C 		-0.21945
C 1.0  		0.27037660734916935 		0.6174356558582924  0.7179706756998399 		Uiso   ? 		C 		-0.21945
C 1.0  		0.020259311615098776 		0.8673636122314743  0.7179706756998399 		Uiso   ? 		C 		-0.21945
C 1.0  		0.8802386887719108 		0.2768141456193878  0.3934379336753971 		Uiso   ? 		C 		0.31035
C 1.0  		0.3803827760255471 		0.7768593977266401  0.3934379336753971 		Uiso   ? 		C 		0.31035
C 1.0  		0.13026548029147658 		0.02688618924620592  0.3934379336753971 		Uiso   ? 		C 		0.31035
C 1.0  		0.630310732398729 		0.5269314413534584  0.3934379336753971 		Uiso   ? 		C 		0.31035
C 1.0  		0.630310732398729 		0.02688618924620592  0.3934379336753971 		Uiso   ? 		C 		0.31035
C 1.0  		0.38038277602554715 		0.2768141456193878  0.3934379336753971 		Uiso   ? 		C 		0.31035
C 1.0  		0.13026548029147655 		0.5269314413534584  0.3934379336753971 		Uiso   ? 		C 		0.31035
C 1.0  		0.8802386887719108 		0.7768593977266401  0.3934379336753971 		Uiso   ? 		C 		0.31035
C 1.0  		0.8796706706892445 		0.2756781094540551  0.7174351431222418 		Uiso   ? 		C 		0.31186
C 1.0  		0.379625418581992 		0.7757233615613076  0.7174351431222418 		Uiso   ? 		C 		0.31186
C 1.0  		0.1296974622088103 		0.02575015308087328  0.7174351431222418 		Uiso   ? 		C 		0.31186
C 1.0  		0.6295533749551739 		0.5256060658272369  0.7174351431222418 		Uiso   ? 		C 		0.31186
C 1.0  		0.6295533749551739 		0.02575015308087328  0.7174351431222418 		Uiso   ? 		C 		0.31186
C 1.0  		0.37962541858199206 		0.2756781094540551  0.7174351431222418 		Uiso   ? 		C 		0.31186
C 1.0  		0.12969746220881026 		0.5256060658272369  0.7174351431222418 		Uiso   ? 		C 		0.31186
C 1.0  		0.8796706706892445 		0.7757233615613076  0.7174351431222418 		Uiso   ? 		C 		0.31186
C 1.0  		0.9758550660207418 		0.13064415901325413  0.2538424417814948 		Uiso   ? 		C 		-0.07136
C 1.0  		0.47580981391348925 		0.6306894111205066  0.2538424417814948 		Uiso   ? 		C 		-0.07136
C 1.0  		0.22588185754030748 		0.8806173674936884  0.2538424417814948 		Uiso   ? 		C 		-0.07136
C 1.0  		0.7259271096475599 		0.38076145474732476  0.2538424417814948 		Uiso   ? 		C 		-0.07136
C 1.0  		0.7259271096475599 		0.8806173674936884  0.2538424417814948 		Uiso   ? 		C 		-0.07136
C 1.0  		0.4758098139134893 		0.13064415901325413  0.2538424417814948 		Uiso   ? 		C 		-0.07136
C 1.0  		0.2258818575403075 		0.38076145474732476  0.2538424417814948 		Uiso   ? 		C 		-0.07136
C 1.0  		0.9758550660207418 		0.6306894111205066  0.2538424417814948 		Uiso   ? 		C 		-0.07136
C 1.0  		0.9758550660207418 		0.13121217709592045  0.5778396512283395 		Uiso   ? 		C 		-0.07024
C 1.0  		0.47580981391348925 		0.631257429203173  0.5778396512283395 		Uiso   ? 		C 		-0.07024
C 1.0  		0.22588185754030748 		0.8811853855763547  0.5778396512283395 		Uiso   ? 		C 		-0.07024
C 1.0  		0.7259271096475599 		0.38114013346910225  0.5778396512283395 		Uiso   ? 		C 		-0.07024
C 1.0  		0.7259271096475599 		0.8811853855763547  0.5778396512283395 		Uiso   ? 		C 		-0.07024
C 1.0  		0.4758098139134893 		0.13121217709592045  0.5778396512283395 		Uiso   ? 		C 		-0.07024
C 1.0  		0.2258818575403075 		0.38114013346910225  0.5778396512283395 		Uiso   ? 		C 		-0.07024
C 1.0  		0.9758550660207418 		0.631257429203173  0.5778396512283395 		Uiso   ? 		C 		-0.07024
C 1.0  		0.119851815442594 		0.22985798411897176  0.25366393092229544 		Uiso   ? 		C 		-0.13860
C 1.0  		0.6198970675498464 		0.7299032362262242  0.25366393092229544 		Uiso   ? 		C 		-0.13860
C 1.0  		0.3697797718157758 		0.979831192599406  0.25366393092229544 		Uiso   ? 		C 		-0.13860
C 1.0  		0.8698250239230283 		0.47978594049215356  0.25366393092229544 		Uiso   ? 		C 		-0.13860
C 1.0  		0.8698250239230282 		0.979831192599406  0.25366393092229544 		Uiso   ? 		C 		-0.13860
C 1.0  		0.6198970675498464 		0.22985798411897176  0.25366393092229544 		Uiso   ? 		C 		-0.13860
C 1.0  		0.3697797718157758 		0.47978594049215356  0.25366393092229544 		Uiso   ? 		C 		-0.13860
C 1.0  		0.11985181544259398 		0.7299032362262242  0.25366393092229544 		Uiso   ? 		C 		-0.13860
C 1.0  		0.11928379735992768 		0.22966864475808302  0.5773041186507414 		Uiso   ? 		C 		-0.13950
C 1.0  		0.6193290494671801 		0.7295245575044467  0.5773041186507414 		Uiso   ? 		C 		-0.13950
C 1.0  		0.36921175373310944 		0.9796418532385174  0.5773041186507414 		Uiso   ? 		C 		-0.13950
C 1.0  		0.869257005840362 		0.4795966011312648  0.5773041186507414 		Uiso   ? 		C 		-0.13950
C 1.0  		0.8692570058403619 		0.9796418532385174  0.5773041186507414 		Uiso   ? 		C 		-0.13950
C 1.0  		0.6193290494671801 		0.22966864475808302  0.5773041186507414 		Uiso   ? 		C 		-0.13950
C 1.0  		0.36921175373310944 		0.4795966011312648  0.5773041186507414 		Uiso   ? 		C 		-0.13950
C 1.0  		0.11928379735992765 		0.7295245575044467  0.5773041186507414 		Uiso   ? 		C 		-0.13950
C 1.0  		0.8999299823043434 		0.38189749091265734  0.3193559271076612 		Uiso   ? 		C 		-0.15400
C 1.0  		0.40007406955797964 		0.8819427430199099  0.3193559271076612 		Uiso   ? 		C 		-0.15400
C 1.0  		0.1499567738239091 		0.13196953453947555  0.3193559271076612 		Uiso   ? 		C 		-0.15400
C 1.0  		0.6500020259311615 		0.632014786646728  0.3193559271076612 		Uiso   ? 		C 		-0.15400
C 1.0  		0.6500020259311615 		0.13196953453947555  0.3193559271076612 		Uiso   ? 		C 		-0.15400
C 1.0  		0.4000740695579797 		0.38189749091265734  0.3193559271076612 		Uiso   ? 		C 		-0.15400
C 1.0  		0.14995677382390907 		0.632014786646728  0.3193559271076612 		Uiso   ? 		C 		-0.15400
C 1.0  		0.8999299823043434 		0.8819427430199099  0.3193559271076612 		Uiso   ? 		C 		-0.15400
C 1.0  		0.8999299823043434 		0.38189749091265734  0.6424605822585091 		Uiso   ? 		C 		-0.15357
C 1.0  		0.40007406955797964 		0.8819427430199099  0.6424605822585091 		Uiso   ? 		C 		-0.15357
C 1.0  		0.1499567738239091 		0.13196953453947555  0.6424605822585091 		Uiso   ? 		C 		-0.15357
C 1.0  		0.6500020259311615 		0.632014786646728  0.6424605822585091 		Uiso   ? 		C 		-0.15357
C 1.0  		0.6500020259311615 		0.13196953453947555  0.6424605822585091 		Uiso   ? 		C 		-0.15357
C 1.0  		0.4000740695579797 		0.38189749091265734  0.6424605822585091 		Uiso   ? 		C 		-0.15357
C 1.0  		0.14995677382390907 		0.632014786646728  0.6424605822585091 		Uiso   ? 		C 		-0.15357
C 1.0  		0.8999299823043434 		0.8819427430199099  0.6424605822585091 		Uiso   ? 		C 		-0.15357
C 1.0  		0.8666062547879191 		0.15109280998924174  0.3252467854612402 		Uiso   ? 		C 		0.30344
C 1.0  		0.3665610026806666 		0.6511380620964942  0.3252467854612402 		Uiso   ? 		C 		0.30344
C 1.0  		0.11644370694659602 		0.901066018469676  0.3252467854612402 		Uiso   ? 		C 		0.30344
C 1.0  		0.6164889590538485 		0.4012101057233124  0.3252467854612402 		Uiso   ? 		C 		0.30344
C 1.0  		0.6164889590538485 		0.901066018469676  0.3252467854612402 		Uiso   ? 		C 		0.30344
C 1.0  		0.36656100268066666 		0.15109280998924174  0.3252467854612402 		Uiso   ? 		C 		0.30344
C 1.0  		0.11644370694659605 		0.4012101057233124  0.3252467854612402 		Uiso   ? 		C 		0.30344
C 1.0  		0.8666062547879191 		0.6511380620964942  0.3252467854612402 		Uiso   ? 		C 		0.30344
C 1.0  		0.8664169154270303 		0.1507141312674642  0.6494225057672842 		Uiso   ? 		C 		0.30544
C 1.0  		0.3663716633197779 		0.6507593833747166  0.6494225057672842 		Uiso   ? 		C 		0.30544
C 1.0  		0.11644370694659602 		0.9006873397478984  0.6494225057672842 		Uiso   ? 		C 		0.30544
C 1.0  		0.6162996196929598 		0.4008314270015348  0.6494225057672842 		Uiso   ? 		C 		0.30544
C 1.0  		0.6162996196929598 		0.9006873397478984  0.6494225057672842 		Uiso   ? 		C 		0.30544
C 1.0  		0.36637166331977794 		0.1507141312674642  0.6494225057672842 		Uiso   ? 		C 		0.30544
C 1.0  		0.11644370694659605 		0.4008314270015348  0.6494225057672842 		Uiso   ? 		C 		0.30544
C 1.0  		0.8664169154270303 		0.6507593833747166  0.6494225057672842 		Uiso   ? 		C 		0.30544
C 1.0  		0.9970610744402845 		0.34989913892245456  0.3593423595683186 		Uiso   ? 		C 		0.64988
C 1.0  		0.497015822333032 		0.849944391029707  0.3593423595683186 		Uiso   ? 		C 		0.64988
C 1.0  		0.24708786595985022 		0.09997118254927273  0.3593423595683186 		Uiso   ? 		C 		0.64988
C 1.0  		0.7471331180671027 		0.6000164346565252  0.3593423595683186 		Uiso   ? 		C 		0.64988
C 1.0  		0.7471331180671027 		0.09997118254927273  0.3593423595683186 		Uiso   ? 		C 		0.64988
C 1.0  		0.49701582233303204 		0.34989913892245456  0.3593423595683186 		Uiso   ? 		C 		0.64988
C 1.0  		0.2470878659598502 		0.6000164346565252  0.3593423595683186 		Uiso   ? 		C 		0.64988
C 1.0  		0.9970610744402845 		0.849944391029707  0.3593423595683186 		Uiso   ? 		C 		0.64988
C 1.0  		0.9970610744402845 		0.3489524421180107  0.6840536124519607 		Uiso   ? 		C 		0.65590
C 1.0  		0.497015822333032 		0.8488083548643743  0.6840536124519607 		Uiso   ? 		C 		0.65590
C 1.0  		0.24708786595985022 		0.09883514638394009  0.6840536124519607 		Uiso   ? 		C 		0.65590
C 1.0  		0.7471331180671027 		0.5988803984911925  0.6840536124519607 		Uiso   ? 		C 		0.65590
C 1.0  		0.7471331180671027 		0.09883514638394009  0.6840536124519607 		Uiso   ? 		C 		0.65590
C 1.0  		0.49701582233303204 		0.3489524421180107  0.6840536124519607 		Uiso   ? 		C 		0.65590
C 1.0  		0.2470878659598502 		0.5988803984911925  0.6840536124519607 		Uiso   ? 		C 		0.65590
C 1.0  		0.9970610744402845 		0.8488083548643743  0.6840536124519607 		Uiso   ? 		C 		0.65590
C 1.0  		0.9976290925229508 		0.36315289418466873  0.38272728212343526 		Uiso   ? 		C 		-0.00179
C 1.0  		0.4975838404156983 		0.8630088069310323  0.38272728212343526 		Uiso   ? 		C 		-0.00179
C 1.0  		0.24765588404251654 		0.11303559845059814  0.38272728212343526 		Uiso   ? 		C 		-0.00179
C 1.0  		0.7475117967888802 		0.6130808505578506  0.38272728212343526 		Uiso   ? 		C 		-0.00179
C 1.0  		0.7475117967888802 		0.11303559845059814  0.38272728212343526 		Uiso   ? 		C 		-0.00179
C 1.0  		0.49758384041569836 		0.36315289418466873  0.38272728212343526 		Uiso   ? 		C 		-0.00179
C 1.0  		0.2476558840425165 		0.6130808505578506  0.38272728212343526 		Uiso   ? 		C 		-0.00179
C 1.0  		0.9976290925229508 		0.8630088069310323  0.38272728212343526 		Uiso   ? 		C 		-0.00179
C 1.0  		0.997439753162062 		0.36220619738022486  0.7074385350070773 		Uiso   ? 		C 		-0.00874
C 1.0  		0.4973945010548095 		0.8620621101265885  0.7074385350070773 		Uiso   ? 		C 		-0.00874
C 1.0  		0.24746654468162776 		0.11208890164615427  0.7074385350070773 		Uiso   ? 		C 		-0.00874
C 1.0  		0.7475117967888802 		0.6121341537534067  0.7074385350070773 		Uiso   ? 		C 		-0.00874
C 1.0  		0.7475117967888802 		0.11208890164615427  0.7074385350070773 		Uiso   ? 		C 		-0.00874
C 1.0  		0.49739450105480953 		0.36220619738022486  0.7074385350070773 		Uiso   ? 		C 		-0.00874
C 1.0  		0.24746654468162774 		0.6121341537534067  0.7074385350070773 		Uiso   ? 		C 		-0.00874
C 1.0  		0.997439753162062 		0.8620621101265885  0.7074385350070773 		Uiso   ? 		C 		-0.00874
C 1.0  		0.8991726248607882 		0.25257870742562466  0.3589853378499199 		Uiso   ? 		C 		0.65374
C 1.0  		0.39912737275353577 		0.7526239595328771  0.3589853378499199 		Uiso   ? 		C 		0.65374
C 1.0  		0.149199416380354 		0.0026507510524428376  0.3589853378499199 		Uiso   ? 		C 		0.65374
C 1.0  		0.6492446684876064 		0.5026960031596952  0.3589853378499199 		Uiso   ? 		C 		0.65374
C 1.0  		0.6492446684876064 		0.0026507510524428376  0.3589853378499199 		Uiso   ? 		C 		0.65374
C 1.0  		0.3991273727535358 		0.25257870742562466  0.3589853378499199 		Uiso   ? 		C 		0.65374
C 1.0  		0.14919941638035397 		0.5026960031596952  0.3589853378499199 		Uiso   ? 		C 		0.65374
C 1.0  		0.8991726248607882 		0.7526239595328771  0.3589853378499199 		Uiso   ? 		C 		0.65374
C 1.0  		0.8989832854998996 		0.2523893680647359  0.6824470147191665 		Uiso   ? 		C 		0.64973
C 1.0  		0.39893803339264705 		0.7524346201719884  0.6824470147191665 		Uiso   ? 		C 		0.64973
C 1.0  		0.14901007701946523 		0.0024614116915540633  0.6824470147191665 		Uiso   ? 		C 		0.64973
C 1.0  		0.6488659897658289 		0.5023173244379178  0.6824470147191665 		Uiso   ? 		C 		0.64973
C 1.0  		0.6488659897658289 		0.0024614116915540633  0.6824470147191665 		Uiso   ? 		C 		0.64973
C 1.0  		0.3989380333926471 		0.2523893680647359  0.6824470147191665 		Uiso   ? 		C 		0.64973
C 1.0  		0.1490100770194652 		0.5023173244379178  0.6824470147191665 		Uiso   ? 		C 		0.64973
C 1.0  		0.8989832854998996 		0.7524346201719884  0.6824470147191665 		Uiso   ? 		C 		0.64973
C 1.0  		0.8866762270421291 		0.25352540423006853  0.3821917495458371 		Uiso   ? 		C 		-0.16496
C 1.0  		0.38663097493487664 		0.7533813169764322  0.3821917495458371 		Uiso   ? 		C 		-0.16496
C 1.0  		0.13651367920080612 		0.0034081084959979337  0.3821917495458371 		Uiso   ? 		C 		-0.16496
C 1.0  		0.6365589313080586 		0.5034533606032503  0.3821917495458371 		Uiso   ? 		C 		-0.16496
C 1.0  		0.6365589313080586 		0.0034081084959979337  0.3821917495458371 		Uiso   ? 		C 		-0.16496
C 1.0  		0.3866309749348767 		0.25352540423006853  0.3821917495458371 		Uiso   ? 		C 		-0.16496
C 1.0  		0.1365136792008061 		0.5034533606032503  0.3821917495458371 		Uiso   ? 		C 		-0.16496
C 1.0  		0.8866762270421291 		0.7533813169764322  0.3821917495458371 		Uiso   ? 		C 		-0.16496
C 1.0  		0.8861082089594629 		0.25257870742562466  0.7054749155558844 		Uiso   ? 		C 		-0.16590
C 1.0  		0.38606295685221037 		0.7526239595328771  0.7054749155558844 		Uiso   ? 		C 		-0.16590
C 1.0  		0.13613500047902857 		0.0026507510524428376  0.7054749155558844 		Uiso   ? 		C 		-0.16590
C 1.0  		0.6359909132253923 		0.5026960031596952  0.7054749155558844 		Uiso   ? 		C 		-0.16590
C 1.0  		0.6359909132253923 		0.0026507510524428376  0.7054749155558844 		Uiso   ? 		C 		-0.16590
C 1.0  		0.3860629568522104 		0.25257870742562466  0.7054749155558844 		Uiso   ? 		C 		-0.16590
C 1.0  		0.13613500047902855 		0.5026960031596952  0.7054749155558844 		Uiso   ? 		C 		-0.16590
C 1.0  		0.8861082089594629 		0.7526239595328771  0.7054749155558844 		Uiso   ? 		C 		-0.16590
C 1.0  		0.8684996483968068 		0.27548877009316636  0.41593030193451686 		Uiso   ? 		C 		-0.22375
C 1.0  		0.36845439628955434 		0.7755340222004188  0.41593030193451686 		Uiso   ? 		C 		-0.22375
C 1.0  		0.1185264399163726 		0.025560813719984508  0.41593030193451686 		Uiso   ? 		C 		-0.22375
C 1.0  		0.618571692023625 		0.5256060658272369  0.41593030193451686 		Uiso   ? 		C 		-0.22375
C 1.0  		0.618571692023625 		0.025560813719984508  0.41593030193451686 		Uiso   ? 		C 		-0.22375
C 1.0  		0.3684543962895544 		0.27548877009316636  0.41593030193451686 		Uiso   ? 		C 		-0.22375
C 1.0  		0.11852643991637257 		0.5256060658272369  0.41593030193451686 		Uiso   ? 		C 		-0.22375
C 1.0  		0.8684996483968068 		0.7755340222004188  0.41593030193451686 		Uiso   ? 		C 		-0.22375
C 1.0  		0.8681209696750293 		0.27378471584516734  0.7399275113813614 		Uiso   ? 		C 		-0.22788
C 1.0  		0.3680757175677768 		0.7738299679524198  0.7399275113813614 		Uiso   ? 		C 		-0.22788
C 1.0  		0.11814776119459505 		0.02385675947198554  0.7399275113813614 		Uiso   ? 		C 		-0.22788
C 1.0  		0.6181930133018475 		0.5237126722183492  0.7399275113813614 		Uiso   ? 		C 		-0.22788
C 1.0  		0.6181930133018475 		0.02385675947198554  0.7399275113813614 		Uiso   ? 		C 		-0.22788
C 1.0  		0.36807571756777685 		0.27378471584516734  0.7399275113813614 		Uiso   ? 		C 		-0.22788
C 1.0  		0.11814776119459502 		0.5237126722183492  0.7399275113813614 		Uiso   ? 		C 		-0.22788
C 1.0  		0.8681209696750293 		0.7738299679524198  0.7399275113813614 		Uiso   ? 		C 		-0.22788
C 1.0  		0.021963365863097772 		0.37943607922110334  0.4161088127937162 		Uiso   ? 		C 		0.31810
C 1.0  		0.5220086179703503 		0.8794813313283557  0.4161088127937162 		Uiso   ? 		C 		0.31810
C 1.0  		0.2718913222362796 		0.12950812284792151  0.4161088127937162 		Uiso   ? 		C 		0.31810
C 1.0  		0.771936574343532 		0.6293640355942851  0.4161088127937162 		Uiso   ? 		C 		0.31810
C 1.0  		0.771936574343532 		0.12950812284792151  0.4161088127937162 		Uiso   ? 		C 		0.31810
C 1.0  		0.5220086179703503 		0.37943607922110334  0.4161088127937162 		Uiso   ? 		C 		0.31810
C 1.0  		0.27189132223627954 		0.6293640355942851  0.4161088127937162 		Uiso   ? 		C 		0.31810
C 1.0  		0.02196336586309774 		0.8794813313283557  0.4161088127937162 		Uiso   ? 		C 		0.31810
C 1.0  		0.021774026502209 		0.37924673986021457  0.7402845330997603 		Uiso   ? 		C 		0.31192
C 1.0  		0.5218192786094614 		0.879291991967467  0.7402845330997603 		Uiso   ? 		C 		0.31192
C 1.0  		0.2718913222362796 		0.12931878348703274  0.7402845330997603 		Uiso   ? 		C 		0.31192
C 1.0  		0.7717472349826432 		0.6293640355942851  0.7402845330997603 		Uiso   ? 		C 		0.31192
C 1.0  		0.7717472349826432 		0.12931878348703274  0.7402845330997603 		Uiso   ? 		C 		0.31192
C 1.0  		0.5218192786094614 		0.37924673986021457  0.7402845330997603 		Uiso   ? 		C 		0.31192
C 1.0  		0.27189132223627954 		0.6293640355942851  0.7402845330997603 		Uiso   ? 		C 		0.31192
C 1.0  		0.021774026502208967 		0.879291991967467  0.7402845330997603 		Uiso   ? 		C 		0.31192
C 1.0  		0.13159085581769797 		0.23061534156252686  0.2318856060999731 		Uiso   ? 		C 		-0.06564
C 1.0  		0.6316361079249504 		0.7306605936697793  0.2318856060999731 		Uiso   ? 		C 		-0.06564
C 1.0  		0.3815188121908798 		0.9805885500429612  0.2318856060999731 		Uiso   ? 		C 		-0.06564
C 1.0  		0.8815640642981322 		0.4807326372965975  0.2318856060999731 		Uiso   ? 		C 		-0.06564
C 1.0  		0.881564064298132 		0.9805885500429612  0.2318856060999731 		Uiso   ? 		C 		-0.06564
C 1.0  		0.6316361079249504 		0.23061534156252686  0.2318856060999731 		Uiso   ? 		C 		-0.06564
C 1.0  		0.3815188121908798 		0.4807326372965975  0.2318856060999731 		Uiso   ? 		C 		-0.06564
C 1.0  		0.13159085581769794 		0.7306605936697793  0.2318856060999731 		Uiso   ? 		C 		-0.06564
C 1.0  		0.13083349837414288 		0.2304260022016381  0.5553472829692198 		Uiso   ? 		C 		-0.06911
C 1.0  		0.6308787504813953 		0.7304712543088906  0.5553472829692198 		Uiso   ? 		C 		-0.06911
C 1.0  		0.3807614547473247 		0.9803992106820724  0.5553472829692198 		Uiso   ? 		C 		-0.06911
C 1.0  		0.8808067068545772 		0.4803539585748199  0.5553472829692198 		Uiso   ? 		C 		-0.06911
C 1.0  		0.8808067068545771 		0.9803992106820724  0.5553472829692198 		Uiso   ? 		C 		-0.06911
C 1.0  		0.6308787504813953 		0.2304260022016381  0.5553472829692198 		Uiso   ? 		C 		-0.06911
C 1.0  		0.3807614547473247 		0.4803539585748199  0.5553472829692198 		Uiso   ? 		C 		-0.06911
C 1.0  		0.13083349837414285 		0.7304712543088906  0.5553472829692198 		Uiso   ? 		C 		-0.06911
C 1.0  		0.9752870479380754 		0.11909445799903892  0.2318856060999731 		Uiso   ? 		C 		-0.14878
C 1.0  		0.47524179583082293 		0.6189503707454026  0.2318856060999731 		Uiso   ? 		C 		-0.14878
C 1.0  		0.22531383945764114 		0.8690676664794732  0.2318856060999731 		Uiso   ? 		C 		-0.14878
C 1.0  		0.7251697522040048 		0.3690224143722208  0.2318856060999731 		Uiso   ? 		C 		-0.14878
C 1.0  		0.7251697522040048 		0.8690676664794732  0.2318856060999731 		Uiso   ? 		C 		-0.14878
C 1.0  		0.475241795830823 		0.11909445799903892  0.2318856060999731 		Uiso   ? 		C 		-0.14878
C 1.0  		0.22531383945764116 		0.3690224143722208  0.2318856060999731 		Uiso   ? 		C 		-0.14878
C 1.0  		0.9752870479380754 		0.6189503707454026  0.2318856060999731 		Uiso   ? 		C 		-0.14878
C 1.0  		0.9750977085771868 		0.11966247608170524  0.5560613264060171 		Uiso   ? 		C 		-0.15059
C 1.0  		0.47505245646993416 		0.6197077281889577  0.5560613264060171 		Uiso   ? 		C 		-0.15059
C 1.0  		0.2251245000967524 		0.8696356845621395  0.5560613264060171 		Uiso   ? 		C 		-0.15059
C 1.0  		0.7251697522040048 		0.36977977181577587  0.5560613264060171 		Uiso   ? 		C 		-0.15059
C 1.0  		0.7251697522040048 		0.8696356845621395  0.5560613264060171 		Uiso   ? 		C 		-0.15059
C 1.0  		0.4750524564699342 		0.11966247608170524  0.5560613264060171 		Uiso   ? 		C 		-0.15059
C 1.0  		0.22512450009675242 		0.36977977181577587  0.5560613264060171 		Uiso   ? 		C 		-0.15059
C 1.0  		0.9750977085771868 		0.6197077281889577  0.5560613264060171 		Uiso   ? 		C 		-0.15059
C 1.0  		0.8825107611025761 		0.14938875574124277  0.16119530585702518 		Uiso   ? 		C 		-0.08068
C 1.0  		0.38246550899532367 		0.6494340078484953  0.16119530585702518 		Uiso   ? 		C 		-0.08068
C 1.0  		0.1325375526221418 		0.899361964221677  0.16119530585702518 		Uiso   ? 		C 		-0.08068
C 1.0  		0.6323934653685055 		0.3995060514753134  0.16119530585702518 		Uiso   ? 		C 		-0.08068
C 1.0  		0.6323934653685055 		0.899361964221677  0.16119530585702518 		Uiso   ? 		C 		-0.08068
C 1.0  		0.3824655089953237 		0.14938875574124277  0.16119530585702518 		Uiso   ? 		C 		-0.08068
C 1.0  		0.13253755262214184 		0.3995060514753134  0.16119530585702518 		Uiso   ? 		C 		-0.08068
C 1.0  		0.8825107611025761 		0.6494340078484953  0.16119530585702518 		Uiso   ? 		C 		-0.08068
C 1.0  		0.8806173674936884 		0.14957809510213155  0.48126527640148387 		Uiso   ? 		C 		-0.07925
C 1.0  		0.3807614547473247 		0.649623347209384  0.48126527640148387 		Uiso   ? 		C 		-0.07925
C 1.0  		0.13064415901325407 		0.8995513035825659  0.48126527640148387 		Uiso   ? 		C 		-0.07925
C 1.0  		0.6306894111205066 		0.3995060514753134  0.48126527640148387 		Uiso   ? 		C 		-0.07925
C 1.0  		0.6306894111205066 		0.8995513035825659  0.48126527640148387 		Uiso   ? 		C 		-0.07925
C 1.0  		0.38076145474732476 		0.14957809510213155  0.48126527640148387 		Uiso   ? 		C 		-0.07925
C 1.0  		0.1306441590132541 		0.3995060514753134  0.48126527640148387 		Uiso   ? 		C 		-0.07925
C 1.0  		0.8806173674936884 		0.649623347209384  0.48126527640148387 		Uiso   ? 		C 		-0.07925
C 1.0  		0.8806173674936884 		0.14976743446302032  0.8054409967075278 		Uiso   ? 		C 		-0.07536
C 1.0  		0.38057211538643587 		0.649623347209384  0.8054409967075278 		Uiso   ? 		C 		-0.07536
C 1.0  		0.13064415901325407 		0.8997406429434546  0.8054409967075278 		Uiso   ? 		C 		-0.07536
C 1.0  		0.6305000717596179 		0.3996953908362022  0.8054409967075278 		Uiso   ? 		C 		-0.07536
C 1.0  		0.6305000717596179 		0.8997406429434546  0.8054409967075278 		Uiso   ? 		C 		-0.07536
C 1.0  		0.3805721153864359 		0.14976743446302032  0.8054409967075278 		Uiso   ? 		C 		-0.07536
C 1.0  		0.1306441590132541 		0.3996953908362022  0.8054409967075278 		Uiso   ? 		C 		-0.07536
C 1.0  		0.8806173674936884 		0.649623347209384  0.8054409967075278 		Uiso   ? 		C 		-0.07536
C 1.0  		0.9003086610261208 		0.3684543962895544  0.16619360991460738 		Uiso   ? 		C 		-0.07594
C 1.0  		0.40045274827975724 		0.8684996483968068  0.16619360991460738 		Uiso   ? 		C 		-0.07594
C 1.0  		0.15033545254568664 		0.1185264399163726  0.16619360991460738 		Uiso   ? 		C 		-0.07594
C 1.0  		0.6503807046529391 		0.6183823526627362  0.16619360991460738 		Uiso   ? 		C 		-0.07594
C 1.0  		0.6503807046529391 		0.1185264399163726  0.16619360991460738 		Uiso   ? 		C 		-0.07594
C 1.0  		0.4004527482797573 		0.3684543962895544  0.16619360991460738 		Uiso   ? 		C 		-0.07594
C 1.0  		0.15033545254568662 		0.6183823526627362  0.16619360991460738 		Uiso   ? 		C 		-0.07594
C 1.0  		0.9003086610261208 		0.8684996483968068  0.16619360991460738 		Uiso   ? 		C 		-0.07594
C 1.0  		0.8995513035825659 		0.3690224143722208  0.48911975420625586 		Uiso   ? 		C 		-0.07679
C 1.0  		0.3995060514753133 		0.8690676664794732  0.48911975420625586 		Uiso   ? 		C 		-0.07679
C 1.0  		0.14957809510213155 		0.11890511863815015  0.48911975420625586 		Uiso   ? 		C 		-0.07679
C 1.0  		0.649623347209384 		0.6189503707454026  0.48911975420625586 		Uiso   ? 		C 		-0.07679
C 1.0  		0.649623347209384 		0.11890511863815015  0.48911975420625586 		Uiso   ? 		C 		-0.07679
C 1.0  		0.3995060514753134 		0.3690224143722208  0.48911975420625586 		Uiso   ? 		C 		-0.07679
C 1.0  		0.14957809510213152 		0.6189503707454026  0.48911975420625586 		Uiso   ? 		C 		-0.07679
C 1.0  		0.8995513035825659 		0.8690676664794732  0.48911975420625586 		Uiso   ? 		C 		-0.07679
C 1.0  		0.8999299823043434 		0.3701584505375534  0.8093682356099138 		Uiso   ? 		C 		-0.07559
C 1.0  		0.40007406955797964 		0.8702037026448058  0.8093682356099138 		Uiso   ? 		C 		-0.07559
C 1.0  		0.1499567738239091 		0.12023049416437157  0.8093682356099138 		Uiso   ? 		C 		-0.07559
C 1.0  		0.6500020259311615 		0.620275746271624  0.8093682356099138 		Uiso   ? 		C 		-0.07559
C 1.0  		0.6500020259311615 		0.12023049416437157  0.8093682356099138 		Uiso   ? 		C 		-0.07559
C 1.0  		0.4000740695579797 		0.3701584505375534  0.8093682356099138 		Uiso   ? 		C 		-0.07559
C 1.0  		0.14995677382390907 		0.620275746271624  0.8093682356099138 		Uiso   ? 		C 		-0.07559
C 1.0  		0.8999299823043434 		0.8702037026448058  0.8093682356099138 		Uiso   ? 		C 		-0.07559
C 1.0  		0.849944391029707 		0.2523893680647359  0.4498473651823959 		Uiso   ? 		C 		0.65352
C 1.0  		0.3498991389224545 		0.7524346201719884  0.4498473651823959 		Uiso   ? 		C 		0.65352
C 1.0  		0.09997118254927273 		0.0024614116915540633  0.4498473651823959 		Uiso   ? 		C 		0.65352
C 1.0  		0.5998270952956364 		0.5023173244379178  0.4498473651823959 		Uiso   ? 		C 		0.65352
C 1.0  		0.5998270952956364 		0.0024614116915540633  0.4498473651823959 		Uiso   ? 		C 		0.65352
C 1.0  		0.34989913892245456 		0.2523893680647359  0.4498473651823959 		Uiso   ? 		C 		0.65352
C 1.0  		0.0999711825492727 		0.5023173244379178  0.4498473651823959 		Uiso   ? 		C 		0.65352
C 1.0  		0.849944391029707 		0.7524346201719884  0.4498473651823959 		Uiso   ? 		C 		0.65352
C 1.0  		0.8497550516688183 		0.2501172957340706  0.77402308548844 		Uiso   ? 		C 		0.64853
C 1.0  		0.3497097995615657 		0.7501625478413231  0.77402308548844 		Uiso   ? 		C 		0.64853
C 1.0  		0.09978184318838396 		0.0  0.77402308548844 		Uiso   ? 		C 		0.64853
C 1.0  		0.5998270952956364 		0.5000452521072525  0.77402308548844 		Uiso   ? 		C 		0.64853
C 1.0  		0.5998270952956364 		0.0  0.77402308548844 		Uiso   ? 		C 		0.64853
C 1.0  		0.3497097995615658 		0.2501172957340706  0.77402308548844 		Uiso   ? 		C 		0.64853
C 1.0  		0.09978184318838393 		0.5000452521072525  0.77402308548844 		Uiso   ? 		C 		0.64853
C 1.0  		0.8497550516688183 		0.7501625478413231  0.77402308548844 		Uiso   ? 		C 		0.64853
C 1.0  		0.8633874856528099 		0.25257870742562466  0.4266409534864787 		Uiso   ? 		C 		-0.00478
C 1.0  		0.3633422335455575 		0.7526239595328771  0.4266409534864787 		Uiso   ? 		C 		-0.00478
C 1.0  		0.11322493781148692 		0.0026507510524428376  0.4266409534864787 		Uiso   ? 		C 		-0.00478
C 1.0  		0.6132701899187394 		0.5026960031596952  0.4266409534864787 		Uiso   ? 		C 		-0.00478
C 1.0  		0.6132701899187394 		0.0026507510524428376  0.4266409534864787 		Uiso   ? 		C 		-0.00478
C 1.0  		0.36334223354555756 		0.25257870742562466  0.4266409534864787 		Uiso   ? 		C 		-0.00478
C 1.0  		0.11322493781148689 		0.5026960031596952  0.4266409534864787 		Uiso   ? 		C 		-0.00478
C 1.0  		0.8633874856528099 		0.7526239595328771  0.4266409534864787 		Uiso   ? 		C 		-0.00478
C 1.0  		0.8626301282092549 		0.2506853138167369  0.7502811412149246 		Uiso   ? 		C 		-0.00337
C 1.0  		0.36258487610200235 		0.7505412265631006  0.7502811412149246 		Uiso   ? 		C 		-0.00337
C 1.0  		0.1126569197288206 		0.0005680180826663224  0.7502811412149246 		Uiso   ? 		C 		-0.00337
C 1.0  		0.6127021718360731 		0.5006132701899187  0.7502811412149246 		Uiso   ? 		C 		-0.00337
C 1.0  		0.6127021718360731 		0.0005680180826663224  0.7502811412149246 		Uiso   ? 		C 		-0.00337
C 1.0  		0.3625848761020024 		0.2506853138167369  0.7502811412149246 		Uiso   ? 		C 		-0.00337
C 1.0  		0.11265691972882057 		0.5006132701899187  0.7502811412149246 		Uiso   ? 		C 		-0.00337
C 1.0  		0.8626301282092549 		0.7505412265631006  0.7502811412149246 		Uiso   ? 		C 		-0.00337
C 1.0  		0.9976290925229508 		0.3995060514753134  0.45020438690079456 		Uiso   ? 		C 		0.65494
C 1.0  		0.4975838404156983 		0.8995513035825659  0.45020438690079456 		Uiso   ? 		C 		0.65494
C 1.0  		0.24765588404251654 		0.14957809510213155  0.45020438690079456 		Uiso   ? 		C 		0.65494
C 1.0  		0.7475117967888802 		0.6494340078484953  0.45020438690079456 		Uiso   ? 		C 		0.65494
C 1.0  		0.7475117967888802 		0.14957809510213155  0.45020438690079456 		Uiso   ? 		C 		0.65494
C 1.0  		0.49758384041569836 		0.3995060514753134  0.45020438690079456 		Uiso   ? 		C 		0.65494
C 1.0  		0.2476558840425165 		0.6494340078484953  0.45020438690079456 		Uiso   ? 		C 		0.65494
C 1.0  		0.9976290925229508 		0.8995513035825659  0.45020438690079456 		Uiso   ? 		C 		0.65494
C 1.0  		0.9978184318838395 		0.3993167121144246  0.7743801072068387 		Uiso   ? 		C 		0.66042
C 1.0  		0.4977731797765871 		0.899361964221677  0.7743801072068387 		Uiso   ? 		C 		0.66042
C 1.0  		0.24765588404251654 		0.14938875574124277  0.7743801072068387 		Uiso   ? 		C 		0.66042
C 1.0  		0.747701136149769 		0.6494340078484953  0.7743801072068387 		Uiso   ? 		C 		0.66042
C 1.0  		0.747701136149769 		0.14938875574124277  0.7743801072068387 		Uiso   ? 		C 		0.66042
C 1.0  		0.49777317977658714 		0.3993167121144246  0.7743801072068387 		Uiso   ? 		C 		0.66042
C 1.0  		0.2476558840425165 		0.6494340078484953  0.7743801072068387 		Uiso   ? 		C 		0.66042
C 1.0  		0.9978184318838395 		0.899361964221677  0.7743801072068387 		Uiso   ? 		C 		0.66042
C 1.0  		0.9985757893273947 		0.386441635573988  0.4271764860640767 		Uiso   ? 		C 		-0.16980
C 1.0  		0.49871987658103095 		0.8862975483203517  0.4271764860640767 		Uiso   ? 		C 		-0.16980
C 1.0  		0.2486025808469604 		0.13632433983991735  0.4271764860640767 		Uiso   ? 		C 		-0.16980
C 1.0  		0.7486478329542129 		0.6363695919471698  0.4271764860640767 		Uiso   ? 		C 		-0.16980
C 1.0  		0.7486478329542129 		0.13632433983991735  0.4271764860640767 		Uiso   ? 		C 		-0.16980
C 1.0  		0.498719876581031 		0.386441635573988  0.4271764860640767 		Uiso   ? 		C 		-0.16980
C 1.0  		0.24860258084696038 		0.6363695919471698  0.4271764860640767 		Uiso   ? 		C 		-0.16980
C 1.0  		0.9985757893273947 		0.8862975483203517  0.4271764860640767 		Uiso   ? 		C 		-0.16980
C 1.0  		0.9987651286882835 		0.3860629568522104  0.7515307172293201 		Uiso   ? 		C 		-0.16667
C 1.0  		0.49871987658103095 		0.8859188695985741  0.7515307172293201 		Uiso   ? 		C 		-0.16667
C 1.0  		0.24879192020784918 		0.1359456611181398  0.7515307172293201 		Uiso   ? 		C 		-0.16667
C 1.0  		0.7488371723151016 		0.6359909132253923  0.7515307172293201 		Uiso   ? 		C 		-0.16667
C 1.0  		0.7488371723151016 		0.1359456611181398  0.7515307172293201 		Uiso   ? 		C 		-0.16667
C 1.0  		0.498719876581031 		0.3860629568522104  0.7515307172293201 		Uiso   ? 		C 		-0.16667
C 1.0  		0.24879192020784915 		0.6359909132253923  0.7515307172293201 		Uiso   ? 		C 		-0.16667
C 1.0  		0.9987651286882835 		0.8859188695985741  0.7515307172293201 		Uiso   ? 		C 		-0.16667
C 1.0  		0.11757974311192872 		0.2758674488149439  0.2534854200630961 		Uiso   ? 		C 		-0.22246
C 1.0  		0.6176249952191811 		0.7757233615613076  0.2534854200630961 		Uiso   ? 		C 		-0.22246
C 1.0  		0.3675076994851106 		0.02575015308087328  0.2534854200630961 		Uiso   ? 		C 		-0.22246
C 1.0  		0.867552951592363 		0.5257954051881257  0.2534854200630961 		Uiso   ? 		C 		-0.22246
C 1.0  		0.867552951592363 		0.02575015308087328  0.2534854200630961 		Uiso   ? 		C 		-0.22246
C 1.0  		0.6176249952191811 		0.2758674488149439  0.2534854200630961 		Uiso   ? 		C 		-0.22246
C 1.0  		0.36750769948511053 		0.5257954051881257  0.2534854200630961 		Uiso   ? 		C 		-0.22246
C 1.0  		0.11757974311192869 		0.7757233615613076  0.2534854200630961 		Uiso   ? 		C 		-0.22246
C 1.0  		0.11852643991637259 		0.27548877009316636  0.5776611403691402 		Uiso   ? 		C 		-0.22891
C 1.0  		0.618571692023625 		0.77534468283953  0.5776611403691402 		Uiso   ? 		C 		-0.22891
C 1.0  		0.3684543962895544 		0.025371474359095734  0.5776611403691402 		Uiso   ? 		C 		-0.22891
C 1.0  		0.8684996483968068 		0.5254167264663482  0.5776611403691402 		Uiso   ? 		C 		-0.22891
C 1.0  		0.8684996483968068 		0.025371474359095734  0.5776611403691402 		Uiso   ? 		C 		-0.22891
C 1.0  		0.618571692023625 		0.27548877009316636  0.5776611403691402 		Uiso   ? 		C 		-0.22891
C 1.0  		0.36845439628955434 		0.5254167264663482  0.5776611403691402 		Uiso   ? 		C 		-0.22891
C 1.0  		0.11852643991637256 		0.77534468283953  0.5776611403691402 		Uiso   ? 		C 		-0.22891
C 1.0  		0.022152705223986567 		0.12912944412614397  0.25455648521829227 		Uiso   ? 		C 		0.31817
C 1.0  		0.5220086179703503 		0.6291746962333964  0.25455648521829227 		Uiso   ? 		C 		0.31817
C 1.0  		0.27208066159716837 		0.8791026526065782  0.25455648521829227 		Uiso   ? 		C 		0.31817
C 1.0  		0.7721259137044209 		0.37924673986021457  0.25455648521829227 		Uiso   ? 		C 		0.31817
C 1.0  		0.7721259137044209 		0.8791026526065782  0.25455648521829227 		Uiso   ? 		C 		0.31817
C 1.0  		0.5220086179703503 		0.12912944412614397  0.25455648521829227 		Uiso   ? 		C 		0.31817
C 1.0  		0.2720806615971684 		0.37924673986021457  0.25455648521829227 		Uiso   ? 		C 		0.31817
C 1.0  		0.022152705223986536 		0.6291746962333964  0.25455648521829227 		Uiso   ? 		C 		0.31817
C 1.0  		0.022152705223986567 		0.12912944412614397  0.578553694665137 		Uiso   ? 		C 		0.31818
C 1.0  		0.5220086179703503 		0.6291746962333964  0.578553694665137 		Uiso   ? 		C 		0.31818
C 1.0  		0.27208066159716837 		0.8791026526065782  0.578553694665137 		Uiso   ? 		C 		0.31818
C 1.0  		0.7721259137044209 		0.37924673986021457  0.578553694665137 		Uiso   ? 		C 		0.31818
C 1.0  		0.7721259137044209 		0.8791026526065782  0.578553694665137 		Uiso   ? 		C 		0.31818
C 1.0  		0.5220086179703503 		0.12912944412614397  0.578553694665137 		Uiso   ? 		C 		0.31818
C 1.0  		0.2720806615971684 		0.37924673986021457  0.578553694665137 		Uiso   ? 		C 		0.31818
C 1.0  		0.022152705223986536 		0.6291746962333964  0.578553694665137 		Uiso   ? 		C 		0.31818
C 1.0  		0.8809960462154659 		0.2304260022016381  0.3934379336753971 		Uiso   ? 		C 		-0.07084
C 1.0  		0.3809507941082135 		0.7304712543088906  0.3934379336753971 		Uiso   ? 		C 		-0.07084
C 1.0  		0.13102283773503162 		0.9803992106820724  0.3934379336753971 		Uiso   ? 		C 		-0.07084
C 1.0  		0.6310680898422841 		0.4803539585748199  0.3934379336753971 		Uiso   ? 		C 		-0.07084
C 1.0  		0.631068089842284 		0.9803992106820724  0.3934379336753971 		Uiso   ? 		C 		-0.07084
C 1.0  		0.38095079410821353 		0.2304260022016381  0.3934379336753971 		Uiso   ? 		C 		-0.07084
C 1.0  		0.13102283773503165 		0.4803539585748199  0.3934379336753971 		Uiso   ? 		C 		-0.07084
C 1.0  		0.8809960462154659 		0.7304712543088906  0.3934379336753971 		Uiso   ? 		C 		-0.07084
C 1.0  		0.8802386887719108 		0.22947930539719422  0.7165425888262449 		Uiso   ? 		C 		-0.07244
C 1.0  		0.3803827760255471 		0.7295245575044467  0.7165425888262449 		Uiso   ? 		C 		-0.07244
C 1.0  		0.13026548029147653 		0.9794525138776285  0.7165425888262449 		Uiso   ? 		C 		-0.07244
C 1.0  		0.630310732398729 		0.47940726177037607  0.7165425888262449 		Uiso   ? 		C 		-0.07244
C 1.0  		0.6303107323987289 		0.9794525138776285  0.7165425888262449 		Uiso   ? 		C 		-0.07244
C 1.0  		0.38038277602554715 		0.22947930539719422  0.7165425888262449 		Uiso   ? 		C 		-0.07244
C 1.0  		0.13026548029147655 		0.47940726177037607  0.7165425888262449 		Uiso   ? 		C 		-0.07244
C 1.0  		0.8802386887719108 		0.7295245575044467  0.7165425888262449 		Uiso   ? 		C 		-0.07244
C 1.0  		0.974719029855409 		0.36959043245488704  0.3937949553937958 		Uiso   ? 		C 		-0.14860
C 1.0  		0.47467377774815667 		0.8696356845621395  0.3937949553937958 		Uiso   ? 		C 		-0.14860
C 1.0  		0.2247458213749749 		0.11966247608170524  0.3937949553937958 		Uiso   ? 		C 		-0.14860
C 1.0  		0.7246017341213385 		0.6197077281889577  0.3937949553937958 		Uiso   ? 		C 		-0.14860
C 1.0  		0.7246017341213385 		0.11966247608170524  0.3937949553937958 		Uiso   ? 		C 		-0.14860
C 1.0  		0.4746737777481567 		0.36959043245488704  0.3937949553937958 		Uiso   ? 		C 		-0.14860
C 1.0  		0.22474582137497487 		0.6197077281889577  0.3937949553937958 		Uiso   ? 		C 		-0.14860
C 1.0  		0.974719029855409 		0.8696356845621395  0.3937949553937958 		Uiso   ? 		C 		-0.14860
C 1.0  		0.9745296904945204 		0.3684543962895544  0.7186847191366372 		Uiso   ? 		C 		-0.14253
C 1.0  		0.47448443838726784 		0.8684996483968068  0.7186847191366372 		Uiso   ? 		C 		-0.14253
C 1.0  		0.2245564820140861 		0.1185264399163726  0.7186847191366372 		Uiso   ? 		C 		-0.14253
C 1.0  		0.7246017341213385 		0.6183823526627362  0.7186847191366372 		Uiso   ? 		C 		-0.14253
C 1.0  		0.7246017341213385 		0.1185264399163726  0.7186847191366372 		Uiso   ? 		C 		-0.14253
C 1.0  		0.4744844383872679 		0.3684543962895544  0.7186847191366372 		Uiso   ? 		C 		-0.14253
C 1.0  		0.22455648201408607 		0.6183823526627362  0.7186847191366372 		Uiso   ? 		C 		-0.14253
C 1.0  		0.9745296904945204 		0.8684996483968068  0.7186847191366372 		Uiso   ? 		C 		-0.14253
C 1.0  		0.1308334983741429 		0.14957809510213155  0.31971294882605994 		Uiso   ? 		C 		-0.08025
C 1.0  		0.6308787504813953 		0.649623347209384  0.31971294882605994 		Uiso   ? 		C 		-0.08025
C 1.0  		0.3807614547473247 		0.8995513035825659  0.31971294882605994 		Uiso   ? 		C 		-0.08025
C 1.0  		0.8808067068545772 		0.3995060514753134  0.31971294882605994 		Uiso   ? 		C 		-0.08025
C 1.0  		0.8808067068545772 		0.8995513035825659  0.31971294882605994 		Uiso   ? 		C 		-0.08025
C 1.0  		0.6308787504813953 		0.14957809510213155  0.31971294882605994 		Uiso   ? 		C 		-0.08025
C 1.0  		0.38076145474732476 		0.3995060514753134  0.31971294882605994 		Uiso   ? 		C 		-0.08025
C 1.0  		0.13083349837414288 		0.649623347209384  0.31971294882605994 		Uiso   ? 		C 		-0.08025
C 1.0  		0.13064415901325413 		0.14938875574124277  0.6426390931177084 		Uiso   ? 		C 		-0.07878
C 1.0  		0.6306894111205066 		0.6494340078484953  0.6426390931177084 		Uiso   ? 		C 		-0.07878
C 1.0  		0.3807614547473247 		0.899361964221677  0.6426390931177084 		Uiso   ? 		C 		-0.07878
C 1.0  		0.8806173674936884 		0.3995060514753134  0.6426390931177084 		Uiso   ? 		C 		-0.07878
C 1.0  		0.8806173674936884 		0.899361964221677  0.6426390931177084 		Uiso   ? 		C 		-0.07878
C 1.0  		0.6306894111205066 		0.14938875574124277  0.6426390931177084 		Uiso   ? 		C 		-0.07878
C 1.0  		0.38076145474732476 		0.3995060514753134  0.6426390931177084 		Uiso   ? 		C 		-0.07878
C 1.0  		0.1306441590132541 		0.6494340078484953  0.6426390931177084 		Uiso   ? 		C 		-0.07878
C 1.0  		0.8995513035825659 		0.11909445799903892  0.3279244483492306 		Uiso   ? 		C 		-0.07608
C 1.0  		0.3995060514753133 		0.6191397101062913  0.3279244483492306 		Uiso   ? 		C 		-0.07608
C 1.0  		0.1495780951021315 		0.8690676664794732  0.3279244483492306 		Uiso   ? 		C 		-0.07608
C 1.0  		0.649623347209384 		0.3692117537331095  0.3279244483492306 		Uiso   ? 		C 		-0.07608
C 1.0  		0.649623347209384 		0.8690676664794732  0.3279244483492306 		Uiso   ? 		C 		-0.07608
C 1.0  		0.3995060514753134 		0.11909445799903892  0.3279244483492306 		Uiso   ? 		C 		-0.07608
C 1.0  		0.14957809510213152 		0.3692117537331095  0.3279244483492306 		Uiso   ? 		C 		-0.07608
C 1.0  		0.8995513035825659 		0.6191397101062913  0.3279244483492306 		Uiso   ? 		C 		-0.07608
C 1.0  		0.899361964221677 		0.11871577927726137  0.652278679514474 		Uiso   ? 		C 		-0.07534
C 1.0  		0.3995060514753133 		0.6187610313845138  0.652278679514474 		Uiso   ? 		C 		-0.07534
C 1.0  		0.14938875574124272 		0.8686889877576957  0.652278679514474 		Uiso   ? 		C 		-0.07534
C 1.0  		0.6494340078484953 		0.36883307501133195  0.652278679514474 		Uiso   ? 		C 		-0.07534
C 1.0  		0.6494340078484953 		0.8686889877576957  0.652278679514474 		Uiso   ? 		C 		-0.07534
C 1.0  		0.3995060514753134 		0.11871577927726137  0.652278679514474 		Uiso   ? 		C 		-0.07534
C 1.0  		0.14938875574124275 		0.36883307501133195  0.652278679514474 		Uiso   ? 		C 		-0.07534
C 1.0  		0.899361964221677 		0.6187610313845138  0.652278679514474 		Uiso   ? 		C 		-0.07534
C 1.0  		0.0994031644666064 		0.25257870742562466  0.2877595050293739 		Uiso   ? 		C 		0.65754
C 1.0  		0.5994484165738588 		0.7526239595328771  0.2877595050293739 		Uiso   ? 		C 		0.65754
C 1.0  		0.349520460200677 		0.0026507510524428376  0.2877595050293739 		Uiso   ? 		C 		0.65754
C 1.0  		0.8495657123079294 		0.5026960031596952  0.2877595050293739 		Uiso   ? 		C 		0.65754
C 1.0  		0.8495657123079294 		0.0026507510524428376  0.2877595050293739 		Uiso   ? 		C 		0.65754
C 1.0  		0.5994484165738588 		0.25257870742562466  0.2877595050293739 		Uiso   ? 		C 		0.65754
C 1.0  		0.34952046020067695 		0.5026960031596952  0.2877595050293739 		Uiso   ? 		C 		0.65754
C 1.0  		0.09940316446660637 		0.7526239595328771  0.2877595050293739 		Uiso   ? 		C 		0.65754
C 1.0  		0.09997118254927272 		0.2523893680647359  0.6117567144762185 		Uiso   ? 		C 		0.65327
C 1.0  		0.6000164346565252 		0.7524346201719884  0.6117567144762185 		Uiso   ? 		C 		0.65327
C 1.0  		0.35008847828334333 		0.0024614116915540633  0.6117567144762185 		Uiso   ? 		C 		0.65327
C 1.0  		0.849944391029707 		0.5023173244379178  0.6117567144762185 		Uiso   ? 		C 		0.65327
C 1.0  		0.849944391029707 		0.0024614116915540633  0.6117567144762185 		Uiso   ? 		C 		0.65327
C 1.0  		0.6000164346565252 		0.2523893680647359  0.6117567144762185 		Uiso   ? 		C 		0.65327
C 1.0  		0.3500884782833433 		0.5023173244379178  0.6117567144762185 		Uiso   ? 		C 		0.65327
C 1.0  		0.09997118254927269 		0.7524346201719884  0.6117567144762185 		Uiso   ? 		C 		0.65327
C 1.0  		0.11265691972882058 		0.25276804678651343  0.26437458247425727 		Uiso   ? 		C 		-0.00666
C 1.0  		0.6127021718360731 		0.7528132988937659  0.26437458247425727 		Uiso   ? 		C 		-0.00666
C 1.0  		0.3627742154628912 		0.0028400904133316115  0.26437458247425727 		Uiso   ? 		C 		-0.00666
C 1.0  		0.8628194675701437 		0.5026960031596952  0.26437458247425727 		Uiso   ? 		C 		-0.00666
C 1.0  		0.8628194675701437 		0.0028400904133316115  0.26437458247425727 		Uiso   ? 		C 		-0.00666
C 1.0  		0.6127021718360731 		0.25276804678651343  0.26437458247425727 		Uiso   ? 		C 		-0.00666
C 1.0  		0.3627742154628911 		0.5026960031596952  0.26437458247425727 		Uiso   ? 		C 		-0.00666
C 1.0  		0.11265691972882055 		0.7528132988937659  0.26437458247425727 		Uiso   ? 		C 		-0.00666
C 1.0  		0.11303559845059813 		0.25257870742562466  0.5883717919211019 		Uiso   ? 		C 		-0.00035
C 1.0  		0.6130808505578506 		0.7524346201719884  0.5883717919211019 		Uiso   ? 		C 		-0.00035
C 1.0  		0.36296355482377995 		0.0024614116915540633  0.5883717919211019 		Uiso   ? 		C 		-0.00035
C 1.0  		0.8630088069310323 		0.5025066637988065  0.5883717919211019 		Uiso   ? 		C 		-0.00035
C 1.0  		0.8630088069310323 		0.0024614116915540633  0.5883717919211019 		Uiso   ? 		C 		-0.00035
C 1.0  		0.6130808505578506 		0.25257870742562466  0.5883717919211019 		Uiso   ? 		C 		-0.00035
C 1.0  		0.3629635548237799 		0.5025066637988065  0.5883717919211019 		Uiso   ? 		C 		-0.00035
C 1.0  		0.1130355984505981 		0.7524346201719884  0.5883717919211019 		Uiso   ? 		C 		-0.00035
C 1.0  		0.9976290925229508 		0.14938875574124277  0.28847354846617135 		Uiso   ? 		C 		0.65767
C 1.0  		0.4975838404156983 		0.6494340078484953  0.28847354846617135 		Uiso   ? 		C 		0.65767
C 1.0  		0.24765588404251648 		0.899361964221677  0.28847354846617135 		Uiso   ? 		C 		0.65767
C 1.0  		0.7475117967888802 		0.3995060514753134  0.28847354846617135 		Uiso   ? 		C 		0.65767
C 1.0  		0.7475117967888802 		0.899361964221677  0.28847354846617135 		Uiso   ? 		C 		0.65767
C 1.0  		0.49758384041569836 		0.14938875574124277  0.28847354846617135 		Uiso   ? 		C 		0.65767
C 1.0  		0.2476558840425165 		0.3995060514753134  0.28847354846617135 		Uiso   ? 		C 		0.65767
C 1.0  		0.9976290925229508 		0.6494340078484953  0.28847354846617135 		Uiso   ? 		C 		0.65767
C 1.0  		0.9976290925229508 		0.14938875574124277  0.6126492687722154 		Uiso   ? 		C 		0.65962
C 1.0  		0.4975838404156983 		0.6494340078484953  0.6126492687722154 		Uiso   ? 		C 		0.65962
C 1.0  		0.24765588404251648 		0.899361964221677  0.6126492687722154 		Uiso   ? 		C 		0.65962
C 1.0  		0.7475117967888802 		0.3995060514753134  0.6126492687722154 		Uiso   ? 		C 		0.65962
C 1.0  		0.7475117967888802 		0.899361964221677  0.6126492687722154 		Uiso   ? 		C 		0.65962
C 1.0  		0.49758384041569836 		0.14938875574124277  0.6126492687722154 		Uiso   ? 		C 		0.65962
C 1.0  		0.2476558840425165 		0.3995060514753134  0.6126492687722154 		Uiso   ? 		C 		0.65962
C 1.0  		0.9976290925229508 		0.6494340078484953  0.6126492687722154 		Uiso   ? 		C 		0.65962
C 1.0  		0.9987651286882835 		0.13613500047902857  0.26544564762945344 		Uiso   ? 		C 		-0.17342
C 1.0  		0.49871987658103095 		0.636180252586281  0.26544564762945344 		Uiso   ? 		C 		-0.17342
C 1.0  		0.24879192020784913 		0.8861082089594629  0.26544564762945344 		Uiso   ? 		C 		-0.17342
C 1.0  		0.7488371723151016 		0.3862522962130992  0.26544564762945344 		Uiso   ? 		C 		-0.17342
C 1.0  		0.7488371723151016 		0.8861082089594629  0.26544564762945344 		Uiso   ? 		C 		-0.17342
C 1.0  		0.498719876581031 		0.13613500047902857  0.26544564762945344 		Uiso   ? 		C 		-0.17342
C 1.0  		0.24879192020784915 		0.3862522962130992  0.26544564762945344 		Uiso   ? 		C 		-0.17342
C 1.0  		0.9987651286882835 		0.636180252586281  0.26544564762945344 		Uiso   ? 		C 		-0.17342
C 1.0  		0.9987651286882835 		0.13651367920080612  0.5896213679354975 		Uiso   ? 		C 		-0.17301
C 1.0  		0.49871987658103095 		0.6363695919471698  0.5896213679354975 		Uiso   ? 		C 		-0.17301
C 1.0  		0.24879192020784913 		0.8864868876812405  0.5896213679354975 		Uiso   ? 		C 		-0.17301
C 1.0  		0.7488371723151016 		0.386441635573988  0.5896213679354975 		Uiso   ? 		C 		-0.17301
C 1.0  		0.7488371723151016 		0.8864868876812405  0.5896213679354975 		Uiso   ? 		C 		-0.17301
C 1.0  		0.498719876581031 		0.13651367920080612  0.5896213679354975 		Uiso   ? 		C 		-0.17301
C 1.0  		0.24879192020784915 		0.386441635573988  0.5896213679354975 		Uiso   ? 		C 		-0.17301
C 1.0  		0.9987651286882835 		0.6363695919471698  0.5896213679354975 		Uiso   ? 		C 		-0.17301
C 1.0  		0.131590855817698 		0.2245564820140861  0.41593030193451686 		Uiso   ? 		C 		-0.22715
C 1.0  		0.6316361079249504 		0.7246017341213385  0.41593030193451686 		Uiso   ? 		C 		-0.22715
C 1.0  		0.3815188121908798 		0.9745296904945204  0.41593030193451686 		Uiso   ? 		C 		-0.22715
C 1.0  		0.8815640642981322 		0.4744844383872679  0.41593030193451686 		Uiso   ? 		C 		-0.22715
C 1.0  		0.881564064298132 		0.9745296904945204  0.41593030193451686 		Uiso   ? 		C 		-0.22715
C 1.0  		0.6316361079249504 		0.2245564820140861  0.41593030193451686 		Uiso   ? 		C 		-0.22715
C 1.0  		0.3815188121908798 		0.4744844383872679  0.41593030193451686 		Uiso   ? 		C 		-0.22715
C 1.0  		0.13159085581769794 		0.7246017341213385  0.41593030193451686 		Uiso   ? 		C 		-0.22715
C 1.0  		0.1323482132612531 		0.22663921498386264  0.740641554818159 		Uiso   ? 		C 		-0.22707
C 1.0  		0.6323934653685055 		0.7266844670911151  0.740641554818159 		Uiso   ? 		C 		-0.22707
C 1.0  		0.38246550899532367 		0.976612423464297  0.740641554818159 		Uiso   ? 		C 		-0.22707
C 1.0  		0.8823214217416874 		0.4767565107179332  0.740641554818159 		Uiso   ? 		C 		-0.22707
C 1.0  		0.8823214217416873 		0.976612423464297  0.740641554818159 		Uiso   ? 		C 		-0.22707
C 1.0  		0.6323934653685055 		0.22663921498386264  0.740641554818159 		Uiso   ? 		C 		-0.22707
C 1.0  		0.38246550899532367 		0.4767565107179332  0.740641554818159 		Uiso   ? 		C 		-0.22707
C 1.0  		0.13234821326125304 		0.7266844670911151  0.740641554818159 		Uiso   ? 		C 		-0.22707
C 1.0  		0.9781271383514072 		0.12174520905148176  0.4168228562305136 		Uiso   ? 		C 		0.32129
C 1.0  		0.4782712256050433 		0.6217904611587342  0.4168228562305136 		Uiso   ? 		C 		0.32129
C 1.0  		0.22815392987097277 		0.871718417531916  0.4168228562305136 		Uiso   ? 		C 		0.32129
C 1.0  		0.7281991819782253 		0.3716731654246636  0.4168228562305136 		Uiso   ? 		C 		0.32129
C 1.0  		0.7281991819782253 		0.871718417531916  0.4168228562305136 		Uiso   ? 		C 		0.32129
C 1.0  		0.47827122560504337 		0.12174520905148176  0.4168228562305136 		Uiso   ? 		C 		0.32129
C 1.0  		0.2281539298709728 		0.3716731654246636  0.4168228562305136 		Uiso   ? 		C 		0.32129
C 1.0  		0.9781271383514072 		0.6217904611587342  0.4168228562305136 		Uiso   ? 		C 		0.32129
C 1.0  		0.9785058170731846 		0.12136653032970421  0.7415341091141557 		Uiso   ? 		C 		0.31437
C 1.0  		0.47846056496593214 		0.6214117824369566  0.7415341091141557 		Uiso   ? 		C 		0.31437
C 1.0  		0.22853260859275032 		0.8713397388101385  0.7415341091141557 		Uiso   ? 		C 		0.31437
C 1.0  		0.728388521339114 		0.3714838260637748  0.7415341091141557 		Uiso   ? 		C 		0.31437
C 1.0  		0.728388521339114 		0.8713397388101385  0.7415341091141557 		Uiso   ? 		C 		0.31437
C 1.0  		0.4784605649659322 		0.12136653032970421  0.7415341091141557 		Uiso   ? 		C 		0.31437
C 1.0  		0.22853260859275035 		0.3714838260637748  0.7415341091141557 		Uiso   ? 		C 		0.31437
C 1.0  		0.9785058170731846 		0.6214117824369566  0.7415341091141557 		Uiso   ? 		C 		0.31437
C 1.0  		0.8690676664794732 		0.2688618924620592  0.23170709524077376 		Uiso   ? 		C 		-0.06279
C 1.0  		0.3690224143722207 		0.7689071445693116  0.23170709524077376 		Uiso   ? 		C 		-0.06279
C 1.0  		0.11909445799903892 		0.018744596727988637  0.23170709524077376 		Uiso   ? 		C 		-0.06279
C 1.0  		0.6191397101062913 		0.5187898488352412  0.23170709524077376 		Uiso   ? 		C 		-0.06279
C 1.0  		0.6191397101062913 		0.018744596727988637  0.23170709524077376 		Uiso   ? 		C 		-0.06279
C 1.0  		0.3690224143722208 		0.2688618924620592  0.23170709524077376 		Uiso   ? 		C 		-0.06279
C 1.0  		0.1190944579990389 		0.5187898488352412  0.23170709524077376 		Uiso   ? 		C 		-0.06279
C 1.0  		0.8690676664794732 		0.7689071445693116  0.23170709524077376 		Uiso   ? 		C 		-0.06279
C 1.0  		0.8698250239230283 		0.2694299105447256  0.5548117503916216 		Uiso   ? 		C 		-0.06584
C 1.0  		0.3697797718157758 		0.7692858232910892  0.5548117503916216 		Uiso   ? 		C 		-0.06584
C 1.0  		0.11985181544259402 		0.01931261481065496  0.5548117503916216 		Uiso   ? 		C 		-0.06584
C 1.0  		0.6198970675498464 		0.5193578669179074  0.5548117503916216 		Uiso   ? 		C 		-0.06584
C 1.0  		0.6198970675498464 		0.01931261481065496  0.5548117503916216 		Uiso   ? 		C 		-0.06584
C 1.0  		0.36977977181577587 		0.2694299105447256  0.5548117503916216 		Uiso   ? 		C 		-0.06584
C 1.0  		0.11985181544259399 		0.5193578669179074  0.5548117503916216 		Uiso   ? 		C 		-0.06584
C 1.0  		0.8698250239230283 		0.7692858232910892  0.5548117503916216 		Uiso   ? 		C 		-0.06584
C 1.0  		0.024992795637318158 		0.38095079410821353  0.23242113867757122 		Uiso   ? 		C 		-0.15477
C 1.0  		0.5250380477445706 		0.8808067068545772  0.23242113867757122 		Uiso   ? 		C 		-0.15477
C 1.0  		0.2751100913713888 		0.1308334983741429  0.23242113867757122 		Uiso   ? 		C 		-0.15477
C 1.0  		0.7749660041177524 		0.6308787504813953  0.23242113867757122 		Uiso   ? 		C 		-0.15477
C 1.0  		0.7749660041177524 		0.1308334983741429  0.23242113867757122 		Uiso   ? 		C 		-0.15477
C 1.0  		0.5250380477445706 		0.38095079410821353  0.23242113867757122 		Uiso   ? 		C 		-0.15477
C 1.0  		0.27511009137138875 		0.6308787504813953  0.23242113867757122 		Uiso   ? 		C 		-0.15477
C 1.0  		0.024992795637318127 		0.8808067068545772  0.23242113867757122 		Uiso   ? 		C 		-0.15477
C 1.0  		0.024992795637318158 		0.37962541858199206  0.5557043046876184 		Uiso   ? 		C 		-0.15048
C 1.0  		0.5248487083836818 		0.8796706706892445  0.5557043046876184 		Uiso   ? 		C 		-0.15048
C 1.0  		0.2749207520105 		0.1296974622088103  0.5557043046876184 		Uiso   ? 		C 		-0.15048
C 1.0  		0.7749660041177524 		0.6297427143160628  0.5557043046876184 		Uiso   ? 		C 		-0.15048
C 1.0  		0.7749660041177524 		0.1296974622088103  0.5557043046876184 		Uiso   ? 		C 		-0.15048
C 1.0  		0.5248487083836818 		0.37962541858199206  0.5557043046876184 		Uiso   ? 		C 		-0.15048
C 1.0  		0.2749207520104999 		0.6297427143160628  0.5557043046876184 		Uiso   ? 		C 		-0.15048
C 1.0  		0.024992795637318127 		0.8796706706892445  0.5557043046876184 		Uiso   ? 		C 		-0.15048
C 1.0  		0.11947313672081644 		0.3487631027571219  0.162087860153022 		Uiso   ? 		C 		-0.23120
C 1.0  		0.6195183888280689 		0.8488083548643743  0.162087860153022 		Uiso   ? 		C 		-0.23120
C 1.0  		0.36959043245488704 		0.09883514638394009  0.162087860153022 		Uiso   ? 		C 		-0.23120
C 1.0  		0.8696356845621395 		0.5986910591303037  0.162087860153022 		Uiso   ? 		C 		-0.23120
C 1.0  		0.8696356845621395 		0.09883514638394009  0.162087860153022 		Uiso   ? 		C 		-0.23120
C 1.0  		0.6195183888280689 		0.3487631027571219  0.162087860153022 		Uiso   ? 		C 		-0.23120
C 1.0  		0.369590432454887 		0.5986910591303037  0.162087860153022 		Uiso   ? 		C 		-0.23120
C 1.0  		0.11947313672081641 		0.8488083548643743  0.162087860153022 		Uiso   ? 		C 		-0.23120
C 1.0  		0.11852643991637257 		0.34857376339623314  0.4839429392894743 		Uiso   ? 		C 		-0.23237
C 1.0  		0.618571692023625 		0.8486190155034856  0.4839429392894743 		Uiso   ? 		C 		-0.23237
C 1.0  		0.3686437356504432 		0.09864580702305131  0.4839429392894743 		Uiso   ? 		C 		-0.23237
C 1.0  		0.8686889877576957 		0.5986910591303037  0.4839429392894743 		Uiso   ? 		C 		-0.23237
C 1.0  		0.8686889877576957 		0.09864580702305131  0.4839429392894743 		Uiso   ? 		C 		-0.23237
C 1.0  		0.618571692023625 		0.34857376339623314  0.4839429392894743 		Uiso   ? 		C 		-0.23237
C 1.0  		0.36864373565044317 		0.5986910591303037  0.4839429392894743 		Uiso   ? 		C 		-0.23237
C 1.0  		0.11852643991637254 		0.8486190155034856  0.4839429392894743 		Uiso   ? 		C 		-0.23237
C 1.0  		0.11947313672081644 		0.34857376339623314  0.8061550401443254 		Uiso   ? 		C 		-0.22773
C 1.0  		0.6195183888280689 		0.8484296761425968  0.8061550401443254 		Uiso   ? 		C 		-0.22773
C 1.0  		0.36959043245488704 		0.09845646766216254  0.8061550401443254 		Uiso   ? 		C 		-0.22773
C 1.0  		0.8696356845621395 		0.598501719769415  0.8061550401443254 		Uiso   ? 		C 		-0.22773
C 1.0  		0.8696356845621395 		0.09845646766216254  0.8061550401443254 		Uiso   ? 		C 		-0.22773
C 1.0  		0.6195183888280689 		0.34857376339623314  0.8061550401443254 		Uiso   ? 		C 		-0.22773
C 1.0  		0.369590432454887 		0.598501719769415  0.8061550401443254 		Uiso   ? 		C 		-0.22773
C 1.0  		0.11947313672081641 		0.8484296761425968  0.8061550401443254 		Uiso   ? 		C 		-0.22773
C 1.0  		0.09978184318838394 		0.13140151645680923  0.16387296874501564 		Uiso   ? 		C 		-0.22715
C 1.0  		0.5998270952956364 		0.631257429203173  0.16387296874501564 		Uiso   ? 		C 		-0.22715
C 1.0  		0.3497097995615657 		0.8813747249372436  0.16387296874501564 		Uiso   ? 		C 		-0.22715
C 1.0  		0.8497550516688183 		0.381329472829991  0.16387296874501564 		Uiso   ? 		C 		-0.22715
C 1.0  		0.8497550516688183 		0.8813747249372436  0.16387296874501564 		Uiso   ? 		C 		-0.22715
C 1.0  		0.5998270952956364 		0.13140151645680923  0.16387296874501564 		Uiso   ? 		C 		-0.22715
C 1.0  		0.3497097995615658 		0.381329472829991  0.16387296874501564 		Uiso   ? 		C 		-0.22715
C 1.0  		0.09978184318838391 		0.631257429203173  0.16387296874501564 		Uiso   ? 		C 		-0.22715
C 1.0  		0.0986458070230513 		0.13102283773503168  0.4869776238958635 		Uiso   ? 		C 		-0.23275
C 1.0  		0.5986910591303037 		0.6310680898422841  0.4869776238958635 		Uiso   ? 		C 		-0.23275
C 1.0  		0.34876310275712186 		0.8809960462154659  0.4869776238958635 		Uiso   ? 		C 		-0.23275
C 1.0  		0.8486190155034856 		0.38114013346910225  0.4869776238958635 		Uiso   ? 		C 		-0.23275
C 1.0  		0.8486190155034856 		0.8809960462154659  0.4869776238958635 		Uiso   ? 		C 		-0.23275
C 1.0  		0.5986910591303037 		0.13102283773503168  0.4869776238958635 		Uiso   ? 		C 		-0.23275
C 1.0  		0.3487631027571219 		0.38114013346910225  0.4869776238958635 		Uiso   ? 		C 		-0.23275
C 1.0  		0.09864580702305127 		0.6310680898422841  0.4869776238958635 		Uiso   ? 		C 		-0.23275
C 1.0  		0.09845646766216253 		0.13045481965236536  0.8100822790467114 		Uiso   ? 		C 		-0.22580
C 1.0  		0.598501719769415 		0.630310732398729  0.8100822790467114 		Uiso   ? 		C 		-0.22580
C 1.0  		0.3485737633962331 		0.8804280281327997  0.8100822790467114 		Uiso   ? 		C 		-0.22580
C 1.0  		0.8486190155034856 		0.38038277602554715  0.8100822790467114 		Uiso   ? 		C 		-0.22580
C 1.0  		0.8486190155034856 		0.8804280281327997  0.8100822790467114 		Uiso   ? 		C 		-0.22580
C 1.0  		0.598501719769415 		0.13045481965236536  0.8100822790467114 		Uiso   ? 		C 		-0.22580
C 1.0  		0.34857376339623314 		0.38038277602554715  0.8100822790467114 		Uiso   ? 		C 		-0.22580
C 1.0  		0.0984564676621625 		0.630310732398729  0.8100822790467114 		Uiso   ? 		C 		-0.22580
C 1.0  		0.15071413126746416 		0.24765588404251654  0.44966885432319653 		Uiso   ? 		C 		0.65183
C 1.0  		0.6507593833747166 		0.747701136149769  0.44966885432319653 		Uiso   ? 		C 		0.65183
C 1.0  		0.40083142700153473 		0.9976290925229508  0.44966885432319653 		Uiso   ? 		C 		0.65183
C 1.0  		0.9006873397478984 		0.49777317977658714  0.44966885432319653 		Uiso   ? 		C 		0.65183
C 1.0  		0.9006873397478983 		0.9976290925229508  0.44966885432319653 		Uiso   ? 		C 		0.65183
C 1.0  		0.6507593833747166 		0.24765588404251654  0.44966885432319653 		Uiso   ? 		C 		0.65183
C 1.0  		0.40083142700153473 		0.49777317977658714  0.44966885432319653 		Uiso   ? 		C 		0.65183
C 1.0  		0.15071413126746414 		0.747701136149769  0.44966885432319653 		Uiso   ? 		C 		0.65183
C 1.0  		0.1510928099892417 		0.2506853138167369  0.77402308548844 		Uiso   ? 		C 		0.64859
C 1.0  		0.6509487227356054 		0.7505412265631006  0.77402308548844 		Uiso   ? 		C 		0.64859
C 1.0  		0.40102076636242356 		0.0005680180826663224  0.77402308548844 		Uiso   ? 		C 		0.64859
C 1.0  		0.901066018469676 		0.5006132701899187  0.77402308548844 		Uiso   ? 		C 		0.64859
C 1.0  		0.901066018469676 		0.0005680180826663224  0.77402308548844 		Uiso   ? 		C 		0.64859
C 1.0  		0.6509487227356054 		0.2506853138167369  0.77402308548844 		Uiso   ? 		C 		0.64859
C 1.0  		0.4010207663624235 		0.5006132701899187  0.77402308548844 		Uiso   ? 		C 		0.64859
C 1.0  		0.15109280998924168 		0.7505412265631006  0.77402308548844 		Uiso   ? 		C 		0.64859
C 1.0  		0.13746037600524996 		0.24746654468162776  0.4264624426272792 		Uiso   ? 		C 		-0.00593
C 1.0  		0.6375056281125024 		0.7475117967888802  0.4264624426272792 		Uiso   ? 		C 		-0.00593
C 1.0  		0.38757767173932056 		0.9976290925229508  0.4264624426272792 		Uiso   ? 		C 		-0.00593
C 1.0  		0.8874335844856843 		0.49758384041569836  0.4264624426272792 		Uiso   ? 		C 		-0.00593
C 1.0  		0.8874335844856842 		0.9976290925229508  0.4264624426272792 		Uiso   ? 		C 		-0.00593
C 1.0  		0.6375056281125024 		0.24746654468162776  0.4264624426272792 		Uiso   ? 		C 		-0.00593
C 1.0  		0.38757767173932056 		0.49758384041569836  0.4264624426272792 		Uiso   ? 		C 		-0.00593
C 1.0  		0.13746037600524993 		0.7475117967888802  0.4264624426272792 		Uiso   ? 		C 		-0.00593
C 1.0  		0.1378390547270275 		0.24992795637318185  0.7506381629333233 		Uiso   ? 		C 		-0.00244
C 1.0  		0.6376949674733912 		0.7499732084804343  0.7506381629333233 		Uiso   ? 		C 		-0.00244
C 1.0  		0.38776701110020934 		0.999901164853616  0.7506381629333233 		Uiso   ? 		C 		-0.00244
C 1.0  		0.8878122632074619 		0.5000452521072525  0.7506381629333233 		Uiso   ? 		C 		-0.00244
C 1.0  		0.8878122632074618 		0.999901164853616  0.7506381629333233 		Uiso   ? 		C 		-0.00244
C 1.0  		0.6376949674733912 		0.24992795637318185  0.7506381629333233 		Uiso   ? 		C 		-0.00244
C 1.0  		0.38776701110020934 		0.5000452521072525  0.7506381629333233 		Uiso   ? 		C 		-0.00244
C 1.0  		0.13783905472702748 		0.7499732084804343  0.7506381629333233 		Uiso   ? 		C 		-0.00244
C 1.0  		0.0024614116915540572 		0.10053920063193907  0.45020438690079456 		Uiso   ? 		C 		0.65491
C 1.0  		0.5025066637988065 		0.6005844527391915  0.45020438690079456 		Uiso   ? 		C 		0.65491
C 1.0  		0.2525787074256246 		0.8505124091123734  0.45020438690079456 		Uiso   ? 		C 		0.65491
C 1.0  		0.7526239595328771 		0.3504671570051209  0.45020438690079456 		Uiso   ? 		C 		0.65491
C 1.0  		0.7526239595328771 		0.8505124091123734  0.45020438690079456 		Uiso   ? 		C 		0.65491
C 1.0  		0.5025066637988065 		0.10053920063193907  0.45020438690079456 		Uiso   ? 		C 		0.65491
C 1.0  		0.25257870742562466 		0.3504671570051209  0.45020438690079456 		Uiso   ? 		C 		0.65491
C 1.0  		0.0024614116915540264 		0.6005844527391915  0.45020438690079456 		Uiso   ? 		C 		0.65491
C 1.0  		0.003218769135109154 		0.10034986127105029  0.7749156397844368 		Uiso   ? 		C 		0.65600
C 1.0  		0.5032640212423616 		0.6003951133783026  0.7749156397844368 		Uiso   ? 		C 		0.65600
C 1.0  		0.2531467255082909 		0.8503230697514845  0.7749156397844368 		Uiso   ? 		C 		0.65600
C 1.0  		0.7531919776155435 		0.3504671570051209  0.7749156397844368 		Uiso   ? 		C 		0.65600
C 1.0  		0.7531919776155435 		0.8503230697514845  0.7749156397844368 		Uiso   ? 		C 		0.65600
C 1.0  		0.5032640212423616 		0.10034986127105029  0.7749156397844368 		Uiso   ? 		C 		0.65600
C 1.0  		0.253146725508291 		0.3504671570051209  0.7749156397844368 		Uiso   ? 		C 		0.65600
C 1.0  		0.0032187691351091233 		0.6003951133783026  0.7749156397844368 		Uiso   ? 		C 		0.65600
C 1.0  		0.0013253755262214119 		0.11379295589415324  0.4273549969232761 		Uiso   ? 		C 		-0.17056
C 1.0  		0.5013706276334738 		0.6138382080014056  0.4273549969232761 		Uiso   ? 		C 		-0.17056
C 1.0  		0.2512533318994032 		0.8637661643745875  0.4273549969232761 		Uiso   ? 		C 		-0.17056
C 1.0  		0.7512985840066557 		0.3637209122673351  0.4273549969232761 		Uiso   ? 		C 		-0.17056
C 1.0  		0.7512985840066557 		0.8637661643745875  0.4273549969232761 		Uiso   ? 		C 		-0.17056
C 1.0  		0.5013706276334738 		0.11379295589415324  0.4273549969232761 		Uiso   ? 		C 		-0.17056
C 1.0  		0.25125333189940324 		0.3637209122673351  0.4273549969232761 		Uiso   ? 		C 		-0.17056
C 1.0  		0.0013253755262213813 		0.6138382080014056  0.4273549969232761 		Uiso   ? 		C 		-0.17056
C 1.0  		0.0018933936088877342 		0.11360361653326446  0.7518877389477188 		Uiso   ? 		C 		-0.16641
C 1.0  		0.5019386457161401 		0.6134595292796282  0.7518877389477188 		Uiso   ? 		C 		-0.16641
C 1.0  		0.2518213499820695 		0.8635768250136987  0.7518877389477188 		Uiso   ? 		C 		-0.16641
C 1.0  		0.751866602089322 		0.3635315729064463  0.7518877389477188 		Uiso   ? 		C 		-0.16641
C 1.0  		0.751866602089322 		0.8635768250136987  0.7518877389477188 		Uiso   ? 		C 		-0.16641
C 1.0  		0.5019386457161401 		0.11360361653326446  0.7518877389477188 		Uiso   ? 		C 		-0.16641
C 1.0  		0.25182134998206956 		0.3635315729064463  0.7518877389477188 		Uiso   ? 		C 		-0.16641
C 1.0  		0.0018933936088877037 		0.6134595292796282  0.7518877389477188 		Uiso   ? 		C 		-0.16641
C 1.0  		0.8830787791852424 		0.223799124570531  0.25312839834469736 		Uiso   ? 		C 		-0.22683
C 1.0  		0.38303352707799 		0.7236550373168946  0.25312839834469736 		Uiso   ? 		C 		-0.22683
C 1.0  		0.13310557070480813 		0.9737723330509652  0.25312839834469736 		Uiso   ? 		C 		-0.22683
C 1.0  		0.6331508228120606 		0.4737270809437128  0.25312839834469736 		Uiso   ? 		C 		-0.22683
C 1.0  		0.6331508228120605 		0.9737723330509652  0.25312839834469736 		Uiso   ? 		C 		-0.22683
C 1.0  		0.38303352707799004 		0.223799124570531  0.25312839834469736 		Uiso   ? 		C 		-0.22683
C 1.0  		0.13310557070480816 		0.4737270809437128  0.25312839834469736 		Uiso   ? 		C 		-0.22683
C 1.0  		0.8830787791852424 		0.7236550373168946  0.25312839834469736 		Uiso   ? 		C 		-0.22683
C 1.0  		0.8815640642981322 		0.22436714265319732  0.5774826295099408 		Uiso   ? 		C 		-0.22597
C 1.0  		0.38170815155176857 		0.7244123947604497  0.5774826295099408 		Uiso   ? 		C 		-0.22597
C 1.0  		0.13159085581769794 		0.9743403511336316  0.5774826295099408 		Uiso   ? 		C 		-0.22597
C 1.0  		0.6316361079249504 		0.4742950990263791  0.5774826295099408 		Uiso   ? 		C 		-0.22597
C 1.0  		0.6316361079249503 		0.9743403511336316  0.5774826295099408 		Uiso   ? 		C 		-0.22597
C 1.0  		0.3817081515517686 		0.22436714265319732  0.5774826295099408 		Uiso   ? 		C 		-0.22597
C 1.0  		0.13159085581769797 		0.4742950990263791  0.5774826295099408 		Uiso   ? 		C 		-0.22597
C 1.0  		0.8815640642981322 		0.7244123947604497  0.5774826295099408 		Uiso   ? 		C 		-0.22597
C 1.0  		0.9781271383514072 		0.3722411835073299  0.2552705286550897 		Uiso   ? 		C 		0.32233
C 1.0  		0.47808188624415454 		0.8722864356145824  0.2552705286550897 		Uiso   ? 		C 		0.32233
C 1.0  		0.22796459051008403 		0.1221238877732593  0.2552705286550897 		Uiso   ? 		C 		0.32233
C 1.0  		0.7280098426173365 		0.6221691398805117  0.2552705286550897 		Uiso   ? 		C 		0.32233
C 1.0  		0.7280098426173365 		0.1221238877732593  0.2552705286550897 		Uiso   ? 		C 		0.32233
C 1.0  		0.4780818862441546 		0.3722411835073299  0.2552705286550897 		Uiso   ? 		C 		0.32233
C 1.0  		0.227964590510084 		0.6221691398805117  0.2552705286550897 		Uiso   ? 		C 		0.32233
C 1.0  		0.9781271383514072 		0.8722864356145824  0.2552705286550897 		Uiso   ? 		C 		0.32233
C 1.0  		0.9781271383514072 		0.37186250478555233  0.5792677381019344 		Uiso   ? 		C 		0.32094
C 1.0  		0.47808188624415454 		0.8719077568928049  0.5792677381019344 		Uiso   ? 		C 		0.32094
C 1.0  		0.22796459051008403 		0.12193454841237053  0.5792677381019344 		Uiso   ? 		C 		0.32094
C 1.0  		0.7280098426173365 		0.621979800519623  0.5792677381019344 		Uiso   ? 		C 		0.32094
C 1.0  		0.7280098426173365 		0.12193454841237053  0.5792677381019344 		Uiso   ? 		C 		0.32094
C 1.0  		0.4780818862441546 		0.37186250478555233  0.5792677381019344 		Uiso   ? 		C 		0.32094
C 1.0  		0.227964590510084 		0.621979800519623  0.5792677381019344 		Uiso   ? 		C 		0.32094
C 1.0  		0.9781271383514072 		0.8719077568928049  0.5792677381019344 		Uiso   ? 		C 		0.32094
C 1.0  		0.119851815442594 		0.2694299105447256  0.39325942281619763 		Uiso   ? 		C 		-0.06518
C 1.0  		0.6198970675498464 		0.769475162651978  0.39325942281619763 		Uiso   ? 		C 		-0.06518
C 1.0  		0.36977977181577587 		0.019501954171543733  0.39325942281619763 		Uiso   ? 		C 		-0.06518
C 1.0  		0.8698250239230283 		0.5195472062787962  0.39325942281619763 		Uiso   ? 		C 		-0.06518
C 1.0  		0.8698250239230283 		0.019501954171543733  0.39325942281619763 		Uiso   ? 		C 		-0.06518
C 1.0  		0.6198970675498464 		0.2694299105447256  0.39325942281619763 		Uiso   ? 		C 		-0.06518
C 1.0  		0.3697797718157758 		0.5195472062787962  0.39325942281619763 		Uiso   ? 		C 		-0.06518
C 1.0  		0.11985181544259398 		0.769475162651978  0.39325942281619763 		Uiso   ? 		C 		-0.06518
C 1.0  		0.11947313672081646 		0.27075528607094695  0.717078121403843 		Uiso   ? 		C 		-0.06311
C 1.0  		0.6195183888280689 		0.7708005381781994  0.717078121403843 		Uiso   ? 		C 		-0.06311
C 1.0  		0.3694010930939983 		0.02063799033687638  0.717078121403843 		Uiso   ? 		C 		-0.06311
C 1.0  		0.8694463452012506 		0.5206832424441288  0.717078121403843 		Uiso   ? 		C 		-0.06311
C 1.0  		0.8694463452012506 		0.02063799033687638  0.717078121403843 		Uiso   ? 		C 		-0.06311
C 1.0  		0.6195183888280689 		0.27075528607094695  0.717078121403843 		Uiso   ? 		C 		-0.06311
C 1.0  		0.36940109309399827 		0.5206832424441288  0.717078121403843 		Uiso   ? 		C 		-0.06311
C 1.0  		0.11947313672081643 		0.7708005381781994  0.717078121403843 		Uiso   ? 		C 		-0.06311
C 1.0  		0.025182134998206953 		0.12950812284792151  0.3934379336753971 		Uiso   ? 		C 		-0.15396
C 1.0  		0.5252273871054594 		0.6295533749551739  0.3934379336753971 		Uiso   ? 		C 		-0.15396
C 1.0  		0.27511009137138875 		0.8796706706892445  0.3934379336753971 		Uiso   ? 		C 		-0.15396
C 1.0  		0.7751553434786412 		0.37962541858199206  0.3934379336753971 		Uiso   ? 		C 		-0.15396
C 1.0  		0.7751553434786412 		0.8796706706892445  0.3934379336753971 		Uiso   ? 		C 		-0.15396
C 1.0  		0.5252273871054594 		0.12950812284792151  0.3934379336753971 		Uiso   ? 		C 		-0.15396
C 1.0  		0.2751100913713888 		0.37962541858199206  0.3934379336753971 		Uiso   ? 		C 		-0.15396
C 1.0  		0.025182134998206922 		0.6295533749551739  0.3934379336753971 		Uiso   ? 		C 		-0.15396
C 1.0  		0.025371474359095727 		0.12950812284792151  0.7177921648406405 		Uiso   ? 		C 		-0.15615
C 1.0  		0.5252273871054594 		0.6295533749551739  0.7177921648406405 		Uiso   ? 		C 		-0.15615
C 1.0  		0.2752994307322775 		0.8794813313283557  0.7177921648406405 		Uiso   ? 		C 		-0.15615
C 1.0  		0.77534468283953 		0.37943607922110334  0.7177921648406405 		Uiso   ? 		C 		-0.15615
C 1.0  		0.77534468283953 		0.8794813313283557  0.7177921648406405 		Uiso   ? 		C 		-0.15615
C 1.0  		0.5252273871054594 		0.12950812284792151  0.7177921648406405 		Uiso   ? 		C 		-0.15615
C 1.0  		0.27529943073227753 		0.37943607922110334  0.7177921648406405 		Uiso   ? 		C 		-0.15615
C 1.0  		0.025371474359095696 		0.6295533749551739  0.7177921648406405 		Uiso   ? 		C 		-0.15615
C 1.0  		0.8686889877576957 		0.3487631027571219  0.3220335899956517 		Uiso   ? 		C 		-0.22969
C 1.0  		0.36864373565044317 		0.8488083548643743  0.3220335899956517 		Uiso   ? 		C 		-0.22969
C 1.0  		0.11871577927726137 		0.09883514638394009  0.3220335899956517 		Uiso   ? 		C 		-0.22969
C 1.0  		0.618571692023625 		0.5986910591303037  0.3220335899956517 		Uiso   ? 		C 		-0.22969
C 1.0  		0.618571692023625 		0.09883514638394009  0.3220335899956517 		Uiso   ? 		C 		-0.22969
C 1.0  		0.3686437356504432 		0.3487631027571219  0.3220335899956517 		Uiso   ? 		C 		-0.22969
C 1.0  		0.11871577927726133 		0.5986910591303037  0.3220335899956517 		Uiso   ? 		C 		-0.22969
C 1.0  		0.8686889877576957 		0.8488083548643743  0.3220335899956517 		Uiso   ? 		C 		-0.22969
C 1.0  		0.8686889877576957 		0.3487631027571219  0.6458522885832969 		Uiso   ? 		C 		-0.23201
C 1.0  		0.36864373565044317 		0.8488083548643743  0.6458522885832969 		Uiso   ? 		C 		-0.23201
C 1.0  		0.11871577927726137 		0.09883514638394009  0.6458522885832969 		Uiso   ? 		C 		-0.23201
C 1.0  		0.618571692023625 		0.5986910591303037  0.6458522885832969 		Uiso   ? 		C 		-0.23201
C 1.0  		0.618571692023625 		0.09883514638394009  0.6458522885832969 		Uiso   ? 		C 		-0.23201
C 1.0  		0.3686437356504432 		0.3487631027571219  0.6458522885832969 		Uiso   ? 		C 		-0.23201
C 1.0  		0.11871577927726133 		0.5986910591303037  0.6458522885832969 		Uiso   ? 		C 		-0.23201
C 1.0  		0.8686889877576957 		0.8488083548643743  0.6458522885832969 		Uiso   ? 		C 		-0.23201
C 1.0  		0.09883514638394006 		0.381329472829991  0.32560380717963894 		Uiso   ? 		C 		-0.23053
C 1.0  		0.5988803984911925 		0.8813747249372436  0.32560380717963894 		Uiso   ? 		C 		-0.23053
C 1.0  		0.3487631027571219 		0.13121217709592045  0.32560380717963894 		Uiso   ? 		C 		-0.23053
C 1.0  		0.8488083548643743 		0.631257429203173  0.32560380717963894 		Uiso   ? 		C 		-0.23053
C 1.0  		0.8488083548643743 		0.13121217709592045  0.32560380717963894 		Uiso   ? 		C 		-0.23053
C 1.0  		0.5988803984911925 		0.381329472829991  0.32560380717963894 		Uiso   ? 		C 		-0.23053
C 1.0  		0.34876310275712186 		0.631257429203173  0.32560380717963894 		Uiso   ? 		C 		-0.23053
C 1.0  		0.09883514638394003 		0.8813747249372436  0.32560380717963894 		Uiso   ? 		C 		-0.23053
C 1.0  		0.09864580702305129 		0.38095079410821353  0.649779527485683 		Uiso   ? 		C 		-0.23340
C 1.0  		0.5986910591303037 		0.8808067068545772  0.649779527485683 		Uiso   ? 		C 		-0.23340
C 1.0  		0.3487631027571219 		0.1308334983741429  0.649779527485683 		Uiso   ? 		C 		-0.23340
C 1.0  		0.8486190155034856 		0.6308787504813953  0.649779527485683 		Uiso   ? 		C 		-0.23340
C 1.0  		0.8486190155034856 		0.1308334983741429  0.649779527485683 		Uiso   ? 		C 		-0.23340
C 1.0  		0.5986910591303037 		0.38095079410821353  0.649779527485683 		Uiso   ? 		C 		-0.23340
C 1.0  		0.34876310275712186 		0.6308787504813953  0.649779527485683 		Uiso   ? 		C 		-0.23340
C 1.0  		0.09864580702305126 		0.8808067068545772  0.649779527485683 		Uiso   ? 		C 		-0.23340
C 1.0  		0.9008766791087872 		0.24689852659896144  0.2875809941701745 		Uiso   ? 		C 		0.65000
C 1.0  		0.40083142700153473 		0.7469437787062139  0.2875809941701745 		Uiso   ? 		C 		0.65000
C 1.0  		0.1509034706283529 		0.9968717350793956  0.2875809941701745 		Uiso   ? 		C 		0.65000
C 1.0  		0.6509487227356054 		0.49682648297214327  0.2875809941701745 		Uiso   ? 		C 		0.65000
C 1.0  		0.6509487227356053 		0.9968717350793956  0.2875809941701745 		Uiso   ? 		C 		0.65000
C 1.0  		0.4008314270015348 		0.24689852659896144  0.2875809941701745 		Uiso   ? 		C 		0.65000
C 1.0  		0.15090347062835294 		0.49682648297214327  0.2875809941701745 		Uiso   ? 		C 		0.65000
C 1.0  		0.9008766791087872 		0.7469437787062139  0.2875809941701745 		Uiso   ? 		C 		0.65000
C 1.0  		0.9008766791087872 		0.24746654468162776  0.6112211818986204 		Uiso   ? 		C 		0.65208
C 1.0  		0.40083142700153473 		0.7475117967888802  0.6112211818986204 		Uiso   ? 		C 		0.65208
C 1.0  		0.15071413126746414 		0.9976290925229508  0.6112211818986204 		Uiso   ? 		C 		0.65208
C 1.0  		0.6507593833747166 		0.49758384041569836  0.6112211818986204 		Uiso   ? 		C 		0.65208
C 1.0  		0.6507593833747165 		0.9976290925229508  0.6112211818986204 		Uiso   ? 		C 		0.65208
C 1.0  		0.4008314270015348 		0.24746654468162776  0.6112211818986204 		Uiso   ? 		C 		0.65208
C 1.0  		0.15071413126746416 		0.49758384041569836  0.6112211818986204 		Uiso   ? 		C 		0.65208
C 1.0  		0.9008766791087872 		0.7475117967888802  0.6112211818986204 		Uiso   ? 		C 		0.65208
C 1.0  		0.8878122632074619 		0.2465198478771839  0.26437458247425727 		Uiso   ? 		C 		-0.00372
C 1.0  		0.38776701110020934 		0.7465650999844363  0.26437458247425727 		Uiso   ? 		C 		-0.00372
C 1.0  		0.13783905472702748 		0.996682395718507  0.26437458247425727 		Uiso   ? 		C 		-0.00372
C 1.0  		0.63788430683428 		0.49663714361125455  0.26437458247425727 		Uiso   ? 		C 		-0.00372
C 1.0  		0.6378843068342799 		0.996682395718507  0.26437458247425727 		Uiso   ? 		C 		-0.00372
C 1.0  		0.3877670111002094 		0.2465198478771839  0.26437458247425727 		Uiso   ? 		C 		-0.00372
C 1.0  		0.1378390547270275 		0.49663714361125455  0.26437458247425727 		Uiso   ? 		C 		-0.00372
C 1.0  		0.8878122632074619 		0.7465650999844363  0.26437458247425727 		Uiso   ? 		C 		-0.00372
C 1.0  		0.887622923846573 		0.24746654468162776  0.5880147702027032 		Uiso   ? 		C 		-0.00492
C 1.0  		0.38757767173932056 		0.7473224574279914  0.5880147702027032 		Uiso   ? 		C 		-0.00492
C 1.0  		0.13746037600524993 		0.997439753162062  0.5880147702027032 		Uiso   ? 		C 		-0.00492
C 1.0  		0.6375056281125024 		0.49739450105480953  0.5880147702027032 		Uiso   ? 		C 		-0.00492
C 1.0  		0.6375056281125023 		0.997439753162062  0.5880147702027032 		Uiso   ? 		C 		-0.00492
C 1.0  		0.3875776717393206 		0.24746654468162776  0.5880147702027032 		Uiso   ? 		C 		-0.00492
C 1.0  		0.13746037600524996 		0.49739450105480953  0.5880147702027032 		Uiso   ? 		C 		-0.00492
C 1.0  		0.887622923846573 		0.7473224574279914  0.5880147702027032 		Uiso   ? 		C 		-0.00492
C 1.0  		0.0024614116915540416 		0.3508458357268984  0.2886520593253707 		Uiso   ? 		C 		0.65648
C 1.0  		0.5023173244379178 		0.8507017484732622  0.2886520593253707 		Uiso   ? 		C 		0.65648
C 1.0  		0.2523893680647359 		0.10072853999282784  0.2886520593253707 		Uiso   ? 		C 		0.65648
C 1.0  		0.7524346201719884 		0.6007737921000803  0.2886520593253707 		Uiso   ? 		C 		0.65648
C 1.0  		0.7524346201719884 		0.10072853999282784  0.2886520593253707 		Uiso   ? 		C 		0.65648
C 1.0  		0.5023173244379178 		0.3508458357268984  0.2886520593253707 		Uiso   ? 		C 		0.65648
C 1.0  		0.25238936806473583 		0.6007737921000803  0.2886520593253707 		Uiso   ? 		C 		0.65648
C 1.0  		0.0024614116915540113 		0.8507017484732622  0.2886520593253707 		Uiso   ? 		C 		0.65648
C 1.0  		0.0024614116915540416 		0.3508458357268984  0.6126492687722154 		Uiso   ? 		C 		0.65887
C 1.0  		0.5023173244379178 		0.8507017484732622  0.6126492687722154 		Uiso   ? 		C 		0.65887
C 1.0  		0.2523893680647359 		0.10072853999282784  0.6126492687722154 		Uiso   ? 		C 		0.65887
C 1.0  		0.7524346201719884 		0.6007737921000803  0.6126492687722154 		Uiso   ? 		C 		0.65887
C 1.0  		0.7524346201719884 		0.10072853999282784  0.6126492687722154 		Uiso   ? 		C 		0.65887
C 1.0  		0.5023173244379178 		0.3508458357268984  0.6126492687722154 		Uiso   ? 		C 		0.65887
C 1.0  		0.25238936806473583 		0.6007737921000803  0.6126492687722154 		Uiso   ? 		C 		0.65887
C 1.0  		0.0024614116915540113 		0.8507017484732622  0.6126492687722154 		Uiso   ? 		C 		0.65887
C 1.0  		0.0011360361653326224 		0.36428893035000137  0.2659811802070515 		Uiso   ? 		C 		-0.17214
C 1.0  		0.501181288272585 		0.8643341824572539  0.2659811802070515 		Uiso   ? 		C 		-0.17214
C 1.0  		0.25125333189940324 		0.11436097397681956  0.2659811802070515 		Uiso   ? 		C 		-0.17214
C 1.0  		0.7512985840066557 		0.6142168867231833  0.2659811802070515 		Uiso   ? 		C 		-0.17214
C 1.0  		0.7512985840066557 		0.11436097397681956  0.2659811802070515 		Uiso   ? 		C 		-0.17214
C 1.0  		0.501181288272585 		0.36428893035000137  0.2659811802070515 		Uiso   ? 		C 		-0.17214
C 1.0  		0.2512533318994032 		0.6142168867231833  0.2659811802070515 		Uiso   ? 		C 		-0.17214
C 1.0  		0.0011360361653325918 		0.8643341824572539  0.2659811802070515 		Uiso   ? 		C 		-0.17214
C 1.0  		0.0013253755262213965 		0.3639102516282238  0.5897998787946968 		Uiso   ? 		C 		-0.17148
C 1.0  		0.5013706276334738 		0.8639555037354762  0.5897998787946968 		Uiso   ? 		C 		-0.17148
C 1.0  		0.25125333189940324 		0.11398229525504201  0.5897998787946968 		Uiso   ? 		C 		-0.17148
C 1.0  		0.7512985840066557 		0.6138382080014056  0.5897998787946968 		Uiso   ? 		C 		-0.17148
C 1.0  		0.7512985840066557 		0.11398229525504201  0.5897998787946968 		Uiso   ? 		C 		-0.17148
C 1.0  		0.5013706276334738 		0.3639102516282238  0.5897998787946968 		Uiso   ? 		C 		-0.17148
C 1.0  		0.2512533318994032 		0.6138382080014056  0.5897998787946968 		Uiso   ? 		C 		-0.17148
C 1.0  		0.001325375526221366 		0.8639555037354762  0.5897998787946968 		Uiso   ? 		C 		-0.17148
C 1.0  		0.08614940920439221 		0.16264251100345697  0.3209625248404555 		Uiso   ? 		C 		0.62743
C 1.0  		0.5860053219507559 		0.6626877631107094  0.3209625248404555 		Uiso   ? 		C 		0.62743
C 1.0  		0.336077365577574 		0.9126157194838913  0.3209625248404555 		Uiso   ? 		C 		0.62743
C 1.0  		0.8361226176848265 		0.4127598067375276  0.3209625248404555 		Uiso   ? 		C 		0.62743
C 1.0  		0.8361226176848264 		0.9126157194838913  0.3209625248404555 		Uiso   ? 		C 		0.62743
C 1.0  		0.5860053219507559 		0.16264251100345697  0.3209625248404555 		Uiso   ? 		C 		0.62743
C 1.0  		0.33607736557757406 		0.4127598067375276  0.3209625248404555 		Uiso   ? 		C 		0.62743
C 1.0  		0.08614940920439218 		0.6626877631107094  0.3209625248404555 		Uiso   ? 		C 		0.62743
C 1.0  		0.08614940920439221 		0.16264251100345697  0.6446027125689014 		Uiso   ? 		C 		0.62920
C 1.0  		0.5860053219507559 		0.6626877631107094  0.6446027125689014 		Uiso   ? 		C 		0.62920
C 1.0  		0.336077365577574 		0.9126157194838913  0.6446027125689014 		Uiso   ? 		C 		0.62920
C 1.0  		0.8361226176848265 		0.4127598067375276  0.6446027125689014 		Uiso   ? 		C 		0.62920
C 1.0  		0.8361226176848264 		0.9126157194838913  0.6446027125689014 		Uiso   ? 		C 		0.62920
C 1.0  		0.5860053219507559 		0.16264251100345697  0.6446027125689014 		Uiso   ? 		C 		0.62920
C 1.0  		0.33607736557757406 		0.4127598067375276  0.6446027125689014 		Uiso   ? 		C 		0.62920
C 1.0  		0.08614940920439218 		0.6626877631107094  0.6446027125689014 		Uiso   ? 		C 		0.62920
C 1.0  		0.1052726846541584 		0.14238319938835814  0.32114103569965485 		Uiso   ? 		C 		-0.17096
C 1.0  		0.6053179367614109 		0.6424284514956106  0.32114103569965485 		Uiso   ? 		C 		-0.17096
C 1.0  		0.35520064102734017 		0.8925457472296813  0.32114103569965485 		Uiso   ? 		C 		-0.17096
C 1.0  		0.8552458931345928 		0.39250049512242874  0.32114103569965485 		Uiso   ? 		C 		-0.17096
C 1.0  		0.8552458931345928 		0.8925457472296813  0.32114103569965485 		Uiso   ? 		C 		-0.17096
C 1.0  		0.6053179367614109 		0.14238319938835814  0.32114103569965485 		Uiso   ? 		C 		-0.17096
C 1.0  		0.3552006410273402 		0.39250049512242874  0.32114103569965485 		Uiso   ? 		C 		-0.17096
C 1.0  		0.10527268465415837 		0.6424284514956106  0.32114103569965485 		Uiso   ? 		C 		-0.17096
C 1.0  		0.1052726846541584 		0.14238319938835814  0.6446027125689014 		Uiso   ? 		C 		-0.17270
C 1.0  		0.6053179367614109 		0.6424284514956106  0.6446027125689014 		Uiso   ? 		C 		-0.17270
C 1.0  		0.35520064102734017 		0.8925457472296813  0.6446027125689014 		Uiso   ? 		C 		-0.17270
C 1.0  		0.8552458931345928 		0.39250049512242874  0.6446027125689014 		Uiso   ? 		C 		-0.17270
C 1.0  		0.8552458931345928 		0.8925457472296813  0.6446027125689014 		Uiso   ? 		C 		-0.17270
C 1.0  		0.6053179367614109 		0.14238319938835814  0.6446027125689014 		Uiso   ? 		C 		-0.17270
C 1.0  		0.3552006410273402 		0.39250049512242874  0.6446027125689014 		Uiso   ? 		C 		-0.17270
C 1.0  		0.10527268465415837 		0.6424284514956106  0.6446027125689014 		Uiso   ? 		C 		-0.17270
C 1.0  		0.9145091130927789 		0.08652808792616977  0.15941019726503156 		Uiso   ? 		C 		0.62479
C 1.0  		0.41465320034641523 		0.5865733400334222  0.15941019726503156 		Uiso   ? 		C 		0.62479
C 1.0  		0.16453590461234466 		0.8365012964066041  0.15941019726503156 		Uiso   ? 		C 		0.62479
C 1.0  		0.664581156719597 		0.3364560442993516  0.15941019726503156 		Uiso   ? 		C 		0.62479
C 1.0  		0.664581156719597 		0.8365012964066041  0.15941019726503156 		Uiso   ? 		C 		0.62479
C 1.0  		0.4146532003464153 		0.08652808792616977  0.15941019726503156 		Uiso   ? 		C 		0.62479
C 1.0  		0.16453590461234469 		0.3364560442993516  0.15941019726503156 		Uiso   ? 		C 		0.62479
C 1.0  		0.9145091130927789 		0.5865733400334222  0.15941019726503156 		Uiso   ? 		C 		0.62479
C 1.0  		0.9137517556492238 		0.08671742728705854  0.48233634155668004 		Uiso   ? 		C 		0.62487
C 1.0  		0.4137065035419714 		0.586762679394311  0.48233634155668004 		Uiso   ? 		C 		0.62487
C 1.0  		0.16377854716878956 		0.8366906357674927  0.48233634155668004 		Uiso   ? 		C 		0.62487
C 1.0  		0.663823799276042 		0.33683472302112916  0.48233634155668004 		Uiso   ? 		C 		0.62487
C 1.0  		0.663823799276042 		0.8366906357674927  0.48233634155668004 		Uiso   ? 		C 		0.62487
C 1.0  		0.41370650354197147 		0.08671742728705854  0.48233634155668004 		Uiso   ? 		C 		0.62487
C 1.0  		0.1637785471687896 		0.33683472302112916  0.48233634155668004 		Uiso   ? 		C 		0.62487
C 1.0  		0.9137517556492238 		0.586762679394311  0.48233634155668004 		Uiso   ? 		C 		0.62487
C 1.0  		0.9150771311754453 		0.08766412409150241  0.8077616378771196 		Uiso   ? 		C 		0.63030
C 1.0  		0.41503187906819283 		0.5877093761987549  0.8077616378771196 		Uiso   ? 		C 		0.63030
C 1.0  		0.1649145833341222 		0.8376373325719367  0.8077616378771196 		Uiso   ? 		C 		0.63030
C 1.0  		0.6649598354413747 		0.337781419825573  0.8077616378771196 		Uiso   ? 		C 		0.63030
C 1.0  		0.6649598354413747 		0.8376373325719367  0.8077616378771196 		Uiso   ? 		C 		0.63030
C 1.0  		0.4150318790681929 		0.08766412409150241  0.8077616378771196 		Uiso   ? 		C 		0.63030
C 1.0  		0.16491458333412223 		0.337781419825573  0.8077616378771196 		Uiso   ? 		C 		0.63030
C 1.0  		0.9150771311754453 		0.5877093761987549  0.8077616378771196 		Uiso   ? 		C 		0.63030
C 1.0  		0.8948178195603465 		0.10603004209771351  0.16101679499782584 		Uiso   ? 		C 		-0.00691
C 1.0  		0.39477256745309397 		0.606075294204966  0.16101679499782584 		Uiso   ? 		C 		-0.00691
C 1.0  		0.14484461107991214 		0.8560032505781477  0.16101679499782584 		Uiso   ? 		C 		-0.00691
C 1.0  		0.6447005238262759 		0.3559579984708953  0.16101679499782584 		Uiso   ? 		C 		-0.00691
C 1.0  		0.6447005238262759 		0.8560032505781477  0.16101679499782584 		Uiso   ? 		C 		-0.00691
C 1.0  		0.394772567453094 		0.10603004209771351  0.16101679499782584 		Uiso   ? 		C 		-0.00691
C 1.0  		0.14484461107991217 		0.3559579984708953  0.16101679499782584 		Uiso   ? 		C 		-0.00691
C 1.0  		0.8948178195603465 		0.606075294204966  0.16101679499782584 		Uiso   ? 		C 		-0.00691
C 1.0  		0.14370857491457953 		0.35633667719267287  0.48233634155668004 		Uiso   ? 		C 		-0.00850
C 1.0  		0.6435644876609432 		0.8561925899390366  0.48233634155668004 		Uiso   ? 		C 		-0.00850
C 1.0  		0.39363653128776144 		0.10621938145860228  0.48233634155668004 		Uiso   ? 		C 		-0.00850
C 1.0  		0.8936817833950138 		0.6062646335658547  0.48233634155668004 		Uiso   ? 		C 		-0.00850
C 1.0  		0.8936817833950138 		0.10621938145860228  0.48233634155668004 		Uiso   ? 		C 		-0.00850
C 1.0  		0.6435644876609432 		0.35633667719267287  0.48233634155668004 		Uiso   ? 		C 		-0.00850
C 1.0  		0.3936365312877614 		0.6062646335658547  0.48233634155668004 		Uiso   ? 		C 		-0.00850
C 1.0  		0.1437085749145795 		0.8561925899390366  0.48233634155668004 		Uiso   ? 		C 		-0.00850
C 1.0  		0.8944391408385689 		0.10678739954126859  0.8063335510035248 		Uiso   ? 		C 		-0.00635
C 1.0  		0.3943938887313165 		0.6066433122876322  0.8063335510035248 		Uiso   ? 		C 		-0.00635
C 1.0  		0.14427659299724582 		0.856760608021703  0.8063335510035248 		Uiso   ? 		C 		-0.00635
C 1.0  		0.6443218451044983 		0.3567153559144504  0.8063335510035248 		Uiso   ? 		C 		-0.00635
C 1.0  		0.6443218451044983 		0.856760608021703  0.8063335510035248 		Uiso   ? 		C 		-0.00635
C 1.0  		0.39439388873131653 		0.10678739954126859  0.8063335510035248 		Uiso   ? 		C 		-0.00635
C 1.0  		0.14427659299724585 		0.3567153559144504  0.8063335510035248 		Uiso   ? 		C 		-0.00635
C 1.0  		0.8944391408385689 		0.6066433122876322  0.8063335510035248 		Uiso   ? 		C 		-0.00635
C 1.0  		0.9139410950101127 		0.3366453836602404  0.320248481403658 		Uiso   ? 		C 		0.62667
C 1.0  		0.41389584290286013 		0.8366906357674927  0.320248481403658 		Uiso   ? 		C 		0.62667
C 1.0  		0.1639678865296784 		0.08671742728705854  0.320248481403658 		Uiso   ? 		C 		0.62667
C 1.0  		0.663823799276042 		0.586762679394311  0.320248481403658 		Uiso   ? 		C 		0.62667
C 1.0  		0.663823799276042 		0.08671742728705854  0.320248481403658 		Uiso   ? 		C 		0.62667
C 1.0  		0.4138958429028602 		0.3366453836602404  0.320248481403658 		Uiso   ? 		C 		0.62667
C 1.0  		0.16396788652967836 		0.586762679394311  0.320248481403658 		Uiso   ? 		C 		0.62667
C 1.0  		0.9139410950101127 		0.8366906357674927  0.320248481403658 		Uiso   ? 		C 		0.62667
C 1.0  		0.9139410950101127 		0.3366453836602404  0.6437101582729046 		Uiso   ? 		C 		0.62634
C 1.0  		0.41389584290286013 		0.8366906357674927  0.6437101582729046 		Uiso   ? 		C 		0.62634
C 1.0  		0.1639678865296784 		0.08671742728705854  0.6437101582729046 		Uiso   ? 		C 		0.62634
C 1.0  		0.663823799276042 		0.586762679394311  0.6437101582729046 		Uiso   ? 		C 		0.62634
C 1.0  		0.663823799276042 		0.08671742728705854  0.6437101582729046 		Uiso   ? 		C 		0.62634
C 1.0  		0.4138958429028602 		0.3366453836602404  0.6437101582729046 		Uiso   ? 		C 		0.62634
C 1.0  		0.16396788652967836 		0.586762679394311  0.6437101582729046 		Uiso   ? 		C 		0.62634
C 1.0  		0.9139410950101127 		0.8366906357674927  0.6437101582729046 		Uiso   ? 		C 		0.62634
C 1.0  		0.8934924440341251 		0.35633667719267287  0.32042699226285737 		Uiso   ? 		C 		-0.01017
C 1.0  		0.3936365312877614 		0.8561925899390366  0.32042699226285737 		Uiso   ? 		C 		-0.01017
C 1.0  		0.14351923555369078 		0.10621938145860228  0.32042699226285737 		Uiso   ? 		C 		-0.01017
C 1.0  		0.6435644876609432 		0.6062646335658547  0.32042699226285737 		Uiso   ? 		C 		-0.01017
C 1.0  		0.6435644876609432 		0.10621938145860228  0.32042699226285737 		Uiso   ? 		C 		-0.01017
C 1.0  		0.39363653128776144 		0.35633667719267287  0.32042699226285737 		Uiso   ? 		C 		-0.01017
C 1.0  		0.14351923555369075 		0.6062646335658547  0.32042699226285737 		Uiso   ? 		C 		-0.01017
C 1.0  		0.8934924440341251 		0.8561925899390366  0.32042699226285737 		Uiso   ? 		C 		-0.01017
C 1.0  		0.8934924440341251 		0.35633667719267287  0.643888669132104 		Uiso   ? 		C 		-0.00883
C 1.0  		0.3936365312877614 		0.8561925899390366  0.643888669132104 		Uiso   ? 		C 		-0.00883
C 1.0  		0.14351923555369078 		0.10621938145860228  0.643888669132104 		Uiso   ? 		C 		-0.00883
C 1.0  		0.6435644876609432 		0.6062646335658547  0.643888669132104 		Uiso   ? 		C 		-0.00883
C 1.0  		0.6435644876609432 		0.10621938145860228  0.643888669132104 		Uiso   ? 		C 		-0.00883
C 1.0  		0.39363653128776144 		0.35633667719267287  0.643888669132104 		Uiso   ? 		C 		-0.00883
C 1.0  		0.14351923555369075 		0.6062646335658547  0.643888669132104 		Uiso   ? 		C 		-0.00883
C 1.0  		0.8934924440341251 		0.8561925899390366  0.643888669132104 		Uiso   ? 		C 		-0.00883
C 1.0  		0.08671742728705853 		0.33626670493846283  0.32703189405323385 		Uiso   ? 		C 		0.63052
C 1.0  		0.5865733400334222 		0.8361226176848265  0.32703189405323385 		Uiso   ? 		C 		0.63052
C 1.0  		0.3366453836602404 		0.08614940920439222  0.32703189405323385 		Uiso   ? 		C 		0.63052
C 1.0  		0.8366906357674927 		0.5861946613116447  0.32703189405323385 		Uiso   ? 		C 		0.63052
C 1.0  		0.8366906357674927 		0.08614940920439222  0.32703189405323385 		Uiso   ? 		C 		0.63052
C 1.0  		0.5865733400334222 		0.33626670493846283  0.32703189405323385 		Uiso   ? 		C 		0.63052
C 1.0  		0.3366453836602403 		0.5861946613116447  0.32703189405323385 		Uiso   ? 		C 		0.63052
C 1.0  		0.08671742728705849 		0.8361226176848265  0.32703189405323385 		Uiso   ? 		C 		0.63052
C 1.0  		0.08652808792616976 		0.3356986868557965  0.6512076143592779 		Uiso   ? 		C 		0.62828
C 1.0  		0.5865733400334222 		0.8357439389630489  0.6512076143592779 		Uiso   ? 		C 		0.62828
C 1.0  		0.3364560442993516 		0.08577073048261467  0.6512076143592779 		Uiso   ? 		C 		0.62828
C 1.0  		0.8365012964066041 		0.5858159825898671  0.6512076143592779 		Uiso   ? 		C 		0.62828
C 1.0  		0.8365012964066041 		0.08577073048261467  0.6512076143592779 		Uiso   ? 		C 		0.62828
C 1.0  		0.5865733400334222 		0.3356986868557965  0.6512076143592779 		Uiso   ? 		C 		0.62828
C 1.0  		0.33645604429935155 		0.5858159825898671  0.6512076143592779 		Uiso   ? 		C 		0.62828
C 1.0  		0.08652808792616971 		0.8357439389630489  0.6512076143592779 		Uiso   ? 		C 		0.62828
C 1.0  		0.10621938145860225 		0.35633667719267287  0.32685338319403445 		Uiso   ? 		C 		-0.00634
C 1.0  		0.6062646335658547 		0.8563819292999253  0.32685338319403445 		Uiso   ? 		C 		-0.00634
C 1.0  		0.35633667719267287 		0.10640872081949106  0.32685338319403445 		Uiso   ? 		C 		-0.00634
C 1.0  		0.8563819292999253 		0.6064539729267434  0.32685338319403445 		Uiso   ? 		C 		-0.00634
C 1.0  		0.8563819292999253 		0.10640872081949106  0.32685338319403445 		Uiso   ? 		C 		-0.00634
C 1.0  		0.6062646335658547 		0.35633667719267287  0.32685338319403445 		Uiso   ? 		C 		-0.00634
C 1.0  		0.3563366771926728 		0.6064539729267434  0.32685338319403445 		Uiso   ? 		C 		-0.00634
C 1.0  		0.10621938145860223 		0.8563819292999253  0.32685338319403445 		Uiso   ? 		C 		-0.00634
C 1.0  		0.10621938145860225 		0.35576865911000655  0.6512076143592779 		Uiso   ? 		C 		-0.00428
C 1.0  		0.6062646335658547 		0.8558139112172589  0.6512076143592779 		Uiso   ? 		C 		-0.00428
C 1.0  		0.35633667719267287 		0.10584070273682473  0.6512076143592779 		Uiso   ? 		C 		-0.00428
C 1.0  		0.8563819292999253 		0.6058859548440771  0.6512076143592779 		Uiso   ? 		C 		-0.00428
C 1.0  		0.8563819292999253 		0.10584070273682473  0.6512076143592779 		Uiso   ? 		C 		-0.00428
C 1.0  		0.6062646335658547 		0.35576865911000655  0.6512076143592779 		Uiso   ? 		C 		-0.00428
C 1.0  		0.3563366771926728 		0.6058859548440771  0.6512076143592779 		Uiso   ? 		C 		-0.00428
C 1.0  		0.10621938145860223 		0.8558139112172589  0.6512076143592779 		Uiso   ? 		C 		-0.00428
C 1.0  		0.9137517556492238 		0.4129491460984164  0.16351594702661693 		Uiso   ? 		C 		0.63842
C 1.0  		0.4137065035419714 		0.9128050588447799  0.16351594702661693 		Uiso   ? 		C 		0.63842
C 1.0  		0.16377854716878962 		0.16283185036434575  0.16351594702661693 		Uiso   ? 		C 		0.63842
C 1.0  		0.663823799276042 		0.6628771024715981  0.16351594702661693 		Uiso   ? 		C 		0.63842
C 1.0  		0.663823799276042 		0.16283185036434575  0.16351594702661693 		Uiso   ? 		C 		0.63842
C 1.0  		0.41370650354197147 		0.4129491460984164  0.16351594702661693 		Uiso   ? 		C 		0.63842
C 1.0  		0.1637785471687896 		0.6628771024715981  0.16351594702661693 		Uiso   ? 		C 		0.63842
C 1.0  		0.9137517556492237 		0.9128050588447799  0.16351594702661693 		Uiso   ? 		C 		0.63842
C 1.0  		0.16264251100345697 		0.16377854716878962  0.488227199910259 		Uiso   ? 		C 		0.63438
C 1.0  		0.6626877631107094 		0.663823799276042  0.488227199910259 		Uiso   ? 		C 		0.63438
C 1.0  		0.41275980673752755 		0.9137517556492238  0.488227199910259 		Uiso   ? 		C 		0.63438
C 1.0  		0.9126157194838913 		0.41370650354197147  0.488227199910259 		Uiso   ? 		C 		0.63438
C 1.0  		0.9126157194838912 		0.9137517556492238  0.488227199910259 		Uiso   ? 		C 		0.63438
C 1.0  		0.6626877631107094 		0.16377854716878962  0.488227199910259 		Uiso   ? 		C 		0.63438
C 1.0  		0.4127598067375276 		0.41370650354197147  0.488227199910259 		Uiso   ? 		C 		0.63438
C 1.0  		0.16264251100345695 		0.663823799276042  0.488227199910259 		Uiso   ? 		C 		0.63438
C 1.0  		0.1607491173945692 		0.1652932620558998  0.8090112138915151 		Uiso   ? 		C 		0.63085
C 1.0  		0.6606050301409329 		0.6651491748022634  0.8090112138915151 		Uiso   ? 		C 		0.63085
C 1.0  		0.410677073767751 		0.915266470536334  0.8090112138915151 		Uiso   ? 		C 		0.63085
C 1.0  		0.9107223258750035 		0.41522121842908166  0.8090112138915151 		Uiso   ? 		C 		0.63085
C 1.0  		0.9107223258750033 		0.915266470536334  0.8090112138915151 		Uiso   ? 		C 		0.63085
C 1.0  		0.6606050301409329 		0.1652932620558998  0.8090112138915151 		Uiso   ? 		C 		0.63085
C 1.0  		0.41067707376775103 		0.41522121842908166  0.8090112138915151 		Uiso   ? 		C 		0.63085
C 1.0  		0.16074911739456918 		0.6651491748022634  0.8090112138915151 		Uiso   ? 		C 		0.63085
C 1.0  		0.14351923555369078 		0.1440872536363571  0.1645870121818131 		Uiso   ? 		C 		-0.17459
C 1.0  		0.6435644876609432 		0.6441325057436096  0.1645870121818131 		Uiso   ? 		C 		-0.17459
C 1.0  		0.3934471919268725 		0.8940604621167915  0.1645870121818131 		Uiso   ? 		C 		-0.17459
C 1.0  		0.8934924440341251 		0.39401521000953893  0.1645870121818131 		Uiso   ? 		C 		-0.17459
C 1.0  		0.8934924440341251 		0.8940604621167915  0.1645870121818131 		Uiso   ? 		C 		-0.17459
C 1.0  		0.6435644876609432 		0.1440872536363571  0.1645870121818131 		Uiso   ? 		C 		-0.17459
C 1.0  		0.39344719192687255 		0.39401521000953893  0.1645870121818131 		Uiso   ? 		C 		-0.17459
C 1.0  		0.14351923555369075 		0.6441325057436096  0.1645870121818131 		Uiso   ? 		C 		-0.17459
C 1.0  		0.1425725387492469 		0.14446593235813465  0.4878701781918603 		Uiso   ? 		C 		-0.17042
C 1.0  		0.6426177908564994 		0.644511184465387  0.4878701781918603 		Uiso   ? 		C 		-0.17042
C 1.0  		0.3925004951224287 		0.8944391408385689  0.4878701781918603 		Uiso   ? 		C 		-0.17042
C 1.0  		0.8925457472296813 		0.39439388873131653  0.4878701781918603 		Uiso   ? 		C 		-0.17042
C 1.0  		0.8925457472296813 		0.8944391408385689  0.4878701781918603 		Uiso   ? 		C 		-0.17042
C 1.0  		0.6426177908564994 		0.14446593235813465  0.4878701781918603 		Uiso   ? 		C 		-0.17042
C 1.0  		0.39250049512242874 		0.39439388873131653  0.4878701781918603 		Uiso   ? 		C 		-0.17042
C 1.0  		0.14257253874924689 		0.644511184465387  0.4878701781918603 		Uiso   ? 		C 		-0.17042
C 1.0  		0.14143650258391427 		0.1456019685234673  0.8095467464691133 		Uiso   ? 		C 		-0.16787
C 1.0  		0.6414817546911666 		0.645457881269831  0.8095467464691133 		Uiso   ? 		C 		-0.16787
C 1.0  		0.3915537983179848 		0.8955751770039017  0.8095467464691133 		Uiso   ? 		C 		-0.16787
C 1.0  		0.8915990504252372 		0.3955299248966491  0.8095467464691133 		Uiso   ? 		C 		-0.16787
C 1.0  		0.8915990504252372 		0.8955751770039017  0.8095467464691133 		Uiso   ? 		C 		-0.16787
C 1.0  		0.6414817546911666 		0.1456019685234673  0.8095467464691133 		Uiso   ? 		C 		-0.16787
C 1.0  		0.39155379831798487 		0.3955299248966491  0.8095467464691133 		Uiso   ? 		C 		-0.16787
C 1.0  		0.14143650258391424 		0.645457881269831  0.8095467464691133 		Uiso   ? 		C 		-0.16787
C 1.0  		0.9126157194838913 		0.16377854716878962  0.32685338319403445 		Uiso   ? 		C 		0.63395
C 1.0  		0.41275980673752755 		0.663823799276042  0.32685338319403445 		Uiso   ? 		C 		0.63395
C 1.0  		0.16264251100345692 		0.9139410950101127  0.32685338319403445 		Uiso   ? 		C 		0.63395
C 1.0  		0.6626877631107094 		0.4138958429028602  0.32685338319403445 		Uiso   ? 		C 		0.63395
C 1.0  		0.6626877631107093 		0.9139410950101127  0.32685338319403445 		Uiso   ? 		C 		0.63395
C 1.0  		0.4127598067375276 		0.16377854716878962  0.32685338319403445 		Uiso   ? 		C 		0.63395
C 1.0  		0.16264251100345695 		0.4138958429028602  0.32685338319403445 		Uiso   ? 		C 		0.63395
C 1.0  		0.9126157194838913 		0.663823799276042  0.32685338319403445 		Uiso   ? 		C 		0.63395
C 1.0  		0.9126157194838913 		0.16377854716878962  0.6510291035000785 		Uiso   ? 		C 		0.63435
C 1.0  		0.4125704673766387 		0.663823799276042  0.6510291035000785 		Uiso   ? 		C 		0.63435
C 1.0  		0.16264251100345692 		0.9137517556492238  0.6510291035000785 		Uiso   ? 		C 		0.63435
C 1.0  		0.6624984237498206 		0.41370650354197147  0.6510291035000785 		Uiso   ? 		C 		0.63435
C 1.0  		0.6624984237498205 		0.9137517556492238  0.6510291035000785 		Uiso   ? 		C 		0.63435
C 1.0  		0.41257046737663877 		0.16377854716878962  0.6510291035000785 		Uiso   ? 		C 		0.63435
C 1.0  		0.16264251100345695 		0.41370650354197147  0.6510291035000785 		Uiso   ? 		C 		0.63435
C 1.0  		0.9126157194838913 		0.663823799276042  0.6510291035000785 		Uiso   ? 		C 		0.63435
C 1.0  		0.8925457472296813 		0.14465527171902343  0.3266748723348351 		Uiso   ? 		C 		-0.17136
C 1.0  		0.3925004951224287 		0.6447005238262759  0.3266748723348351 		Uiso   ? 		C 		-0.17136
C 1.0  		0.14257253874924686 		0.8948178195603465  0.3266748723348351 		Uiso   ? 		C 		-0.17136
C 1.0  		0.6424284514956106 		0.394772567453094  0.3266748723348351 		Uiso   ? 		C 		-0.17136
C 1.0  		0.6424284514956106 		0.8948178195603465  0.3266748723348351 		Uiso   ? 		C 		-0.17136
C 1.0  		0.39250049512242874 		0.14465527171902343  0.3266748723348351 		Uiso   ? 		C 		-0.17136
C 1.0  		0.14257253874924689 		0.394772567453094  0.3266748723348351 		Uiso   ? 		C 		-0.17136
C 1.0  		0.8925457472296813 		0.6447005238262759  0.3266748723348351 		Uiso   ? 		C 		-0.17136
C 1.0  		0.8925457472296813 		0.14446593235813465  0.6508505926408791 		Uiso   ? 		C 		-0.17185
C 1.0  		0.3925004951224287 		0.644511184465387  0.6508505926408791 		Uiso   ? 		C 		-0.17185
C 1.0  		0.14257253874924686 		0.8944391408385689  0.6508505926408791 		Uiso   ? 		C 		-0.17185
C 1.0  		0.6424284514956106 		0.39439388873131653  0.6508505926408791 		Uiso   ? 		C 		-0.17185
C 1.0  		0.6424284514956106 		0.8944391408385689  0.6508505926408791 		Uiso   ? 		C 		-0.17185
C 1.0  		0.39250049512242874 		0.14446593235813465  0.6508505926408791 		Uiso   ? 		C 		-0.17185
C 1.0  		0.14257253874924689 		0.39439388873131653  0.6508505926408791 		Uiso   ? 		C 		-0.17185
C 1.0  		0.8925457472296813 		0.644511184465387  0.6508505926408791 		Uiso   ? 		C 		-0.17185
C 1.0  		0.8378266719328255 		0.16283185036434575  0.1606597732794271 		Uiso   ? 		C 		0.62914
C 1.0  		0.33778141982557297 		0.6628771024715981  0.1606597732794271 		Uiso   ? 		C 		0.62914
C 1.0  		0.08766412409150236 		0.9128050588447799  0.1606597732794271 		Uiso   ? 		C 		0.62914
C 1.0  		0.5877093761987549 		0.4127598067375276  0.1606597732794271 		Uiso   ? 		C 		0.62914
C 1.0  		0.5877093761987547 		0.9128050588447799  0.1606597732794271 		Uiso   ? 		C 		0.62914
C 1.0  		0.337781419825573 		0.16283185036434575  0.1606597732794271 		Uiso   ? 		C 		0.62914
C 1.0  		0.08766412409150239 		0.4127598067375276  0.1606597732794271 		Uiso   ? 		C 		0.62914
C 1.0  		0.8378266719328255 		0.6628771024715981  0.1606597732794271 		Uiso   ? 		C 		0.62914
C 1.0  		0.08596006984350342 		0.41257046737663877  0.4825148524158794 		Uiso   ? 		C 		0.62678
C 1.0  		0.5860053219507558 		0.9126157194838913  0.4825148524158794 		Uiso   ? 		C 		0.62678
C 1.0  		0.3358880262166853 		0.16264251100345697  0.4825148524158794 		Uiso   ? 		C 		0.62678
C 1.0  		0.8359332783239377 		0.6626877631107094  0.4825148524158794 		Uiso   ? 		C 		0.62678
C 1.0  		0.8359332783239377 		0.16264251100345697  0.4825148524158794 		Uiso   ? 		C 		0.62678
C 1.0  		0.5860053219507559 		0.41257046737663877  0.4825148524158794 		Uiso   ? 		C 		0.62678
C 1.0  		0.33588802621668523 		0.6626877631107094  0.4825148524158794 		Uiso   ? 		C 		0.62678
C 1.0  		0.08596006984350339 		0.9126157194838913  0.4825148524158794 		Uiso   ? 		C 		0.62678
C 1.0  		0.08558139112172587 		0.41143443121130613  0.8074046161587208 		Uiso   ? 		C 		0.63566
C 1.0  		0.5856266432289782 		0.9114796833185586  0.8074046161587208 		Uiso   ? 		C 		0.63566
C 1.0  		0.33550934749490774 		0.1615064748381243  0.8074046161587208 		Uiso   ? 		C 		0.63566
C 1.0  		0.8355545996021602 		0.661362387584488  0.8074046161587208 		Uiso   ? 		C 		0.63566
C 1.0  		0.8355545996021602 		0.1615064748381243  0.8074046161587208 		Uiso   ? 		C 		0.63566
C 1.0  		0.5856266432289783 		0.41143443121130613  0.8074046161587208 		Uiso   ? 		C 		0.63566
C 1.0  		0.3355093474949077 		0.661362387584488  0.8074046161587208 		Uiso   ? 		C 		0.63566
C 1.0  		0.08558139112172584 		0.9114796833185586  0.8074046161587208 		Uiso   ? 		C 		0.63566
C 1.0  		0.8374479932110479 		0.3366453836602404  0.1645870121818131 		Uiso   ? 		C 		0.63239
C 1.0  		0.3374027411037954 		0.8365012964066041  0.1645870121818131 		Uiso   ? 		C 		0.63239
C 1.0  		0.08747478473061364 		0.08652808792616977  0.1645870121818131 		Uiso   ? 		C 		0.63239
C 1.0  		0.5875200368378661 		0.5865733400334222  0.1645870121818131 		Uiso   ? 		C 		0.63239
C 1.0  		0.5875200368378661 		0.08652808792616977  0.1645870121818131 		Uiso   ? 		C 		0.63239
C 1.0  		0.3374027411037955 		0.3366453836602404  0.1645870121818131 		Uiso   ? 		C 		0.63239
C 1.0  		0.0874747847306136 		0.5865733400334222  0.1645870121818131 		Uiso   ? 		C 		0.63239
C 1.0  		0.8374479932110479 		0.8365012964066041  0.1645870121818131 		Uiso   ? 		C 		0.63239
C 1.0  		0.8365012964066041 		0.3358880262166853  0.48840571076945843 		Uiso   ? 		C 		0.62692
C 1.0  		0.33645604429935155 		0.8359332783239377  0.48840571076945843 		Uiso   ? 		C 		0.62692
C 1.0  		0.08652808792616977 		0.08596006984350345  0.48840571076945843 		Uiso   ? 		C 		0.62692
C 1.0  		0.5865733400334222 		0.5860053219507559  0.48840571076945843 		Uiso   ? 		C 		0.62692
C 1.0  		0.5865733400334222 		0.08596006984350345  0.48840571076945843 		Uiso   ? 		C 		0.62692
C 1.0  		0.3364560442993516 		0.3358880262166853  0.48840571076945843 		Uiso   ? 		C 		0.62692
C 1.0  		0.08652808792616973 		0.5860053219507559  0.48840571076945843 		Uiso   ? 		C 		0.62692
C 1.0  		0.8365012964066041 		0.8359332783239377  0.48840571076945843 		Uiso   ? 		C 		0.62692
C 1.0  		0.8389627080981581 		0.33475199005135264  0.8104393007651101 		Uiso   ? 		C 		0.62791
C 1.0  		0.3389174559909056 		0.8347972421586051  0.8104393007651101 		Uiso   ? 		C 		0.62791
C 1.0  		0.08898949961772383 		0.0848240336781708  0.8104393007651101 		Uiso   ? 		C 		0.62791
C 1.0  		0.5888454123640875 		0.5848692857854232  0.8104393007651101 		Uiso   ? 		C 		0.62791
C 1.0  		0.5888454123640875 		0.0848240336781708  0.8104393007651101 		Uiso   ? 		C 		0.62791
C 1.0  		0.33891745599090567 		0.33475199005135264  0.8104393007651101 		Uiso   ? 		C 		0.62791
C 1.0  		0.08898949961772379 		0.5848692857854232  0.8104393007651101 		Uiso   ? 		C 		0.62791
C 1.0  		0.8389627080981581 		0.8347972421586051  0.8104393007651101 		Uiso   ? 		C 		0.62791
C 1.0  		0.10678739954126856 		0.39250049512242874  0.1617308384346233 		Uiso   ? 		C 		-0.16648
C 1.0  		0.6068326516485211 		0.8925457472296813  0.1617308384346233 		Uiso   ? 		C 		-0.16648
C 1.0  		0.3569046952753392 		0.1425725387492469  0.1617308384346233 		Uiso   ? 		C 		-0.16648
C 1.0  		0.856760608021703 		0.6426177908564994  0.1617308384346233 		Uiso   ? 		C 		-0.16648
C 1.0  		0.856760608021703 		0.1425725387492469  0.1617308384346233 		Uiso   ? 		C 		-0.16648
C 1.0  		0.6068326516485211 		0.39250049512242874  0.1617308384346233 		Uiso   ? 		C 		-0.16648
C 1.0  		0.35690469527533913 		0.6426177908564994  0.1617308384346233 		Uiso   ? 		C 		-0.16648
C 1.0  		0.10678739954126854 		0.8925457472296813  0.1617308384346233 		Uiso   ? 		C 		-0.16648
C 1.0  		0.10508334529326961 		0.39250049512242874  0.4828718741342781 		Uiso   ? 		C 		-0.16996
C 1.0  		0.605128597400522 		0.8923564078687924  0.4828718741342781 		Uiso   ? 		C 		-0.16996
C 1.0  		0.35501130166645145 		0.14238319938835814  0.4828718741342781 		Uiso   ? 		C 		-0.16996
C 1.0  		0.8550565537737039 		0.6424284514956106  0.4828718741342781 		Uiso   ? 		C 		-0.16996
C 1.0  		0.8550565537737039 		0.14238319938835814  0.4828718741342781 		Uiso   ? 		C 		-0.16996
C 1.0  		0.605128597400522 		0.39250049512242874  0.4828718741342781 		Uiso   ? 		C 		-0.16996
C 1.0  		0.3550113016664514 		0.6424284514956106  0.4828718741342781 		Uiso   ? 		C 		-0.16996
C 1.0  		0.10508334529326958 		0.8923564078687924  0.4828718741342781 		Uiso   ? 		C 		-0.16996
C 1.0  		0.10508334529326961 		0.39193247703976236  0.8061550401443254 		Uiso   ? 		C 		-0.16966
C 1.0  		0.605128597400522 		0.8917883897861261  0.8061550401443254 		Uiso   ? 		C 		-0.16966
C 1.0  		0.35501130166645145 		0.14181518130569182  0.8061550401443254 		Uiso   ? 		C 		-0.16966
C 1.0  		0.8550565537737039 		0.6418604334129443  0.8061550401443254 		Uiso   ? 		C 		-0.16966
C 1.0  		0.8550565537737039 		0.14181518130569182  0.8061550401443254 		Uiso   ? 		C 		-0.16966
C 1.0  		0.605128597400522 		0.39193247703976236  0.8061550401443254 		Uiso   ? 		C 		-0.16966
C 1.0  		0.3550113016664514 		0.6418604334129443  0.8061550401443254 		Uiso   ? 		C 		-0.16966
C 1.0  		0.10508334529326958 		0.8917883897861261  0.8061550401443254 		Uiso   ? 		C 		-0.16966
C 1.0  		0.8569499473825916 		0.35633667719267287  0.16512254475941118 		Uiso   ? 		C 		-0.00762
C 1.0  		0.3570940346362279 		0.8563819292999253  0.16512254475941118 		Uiso   ? 		C 		-0.00762
C 1.0  		0.10697673890215736 		0.10640872081949106  0.16512254475941118 		Uiso   ? 		C 		-0.00762
C 1.0  		0.6070219910094098 		0.6064539729267434  0.16512254475941118 		Uiso   ? 		C 		-0.00762
C 1.0  		0.6070219910094098 		0.10640872081949106  0.16512254475941118 		Uiso   ? 		C 		-0.00762
C 1.0  		0.35709403463622796 		0.35633667719267287  0.16512254475941118 		Uiso   ? 		C 		-0.00762
C 1.0  		0.10697673890215732 		0.6064539729267434  0.16512254475941118 		Uiso   ? 		C 		-0.00762
C 1.0  		0.8569499473825916 		0.8563819292999253  0.16512254475941118 		Uiso   ? 		C 		-0.00762
C 1.0  		0.8563819292999253 		0.3559579984708953  0.488227199910259 		Uiso   ? 		C 		-0.00592
C 1.0  		0.3563366771926728 		0.8560032505781477  0.488227199910259 		Uiso   ? 		C 		-0.00592
C 1.0  		0.10640872081949106 		0.10603004209771351  0.488227199910259 		Uiso   ? 		C 		-0.00592
C 1.0  		0.6062646335658547 		0.606075294204966  0.488227199910259 		Uiso   ? 		C 		-0.00592
C 1.0  		0.6062646335658547 		0.10603004209771351  0.488227199910259 		Uiso   ? 		C 		-0.00592
C 1.0  		0.35633667719267287 		0.3559579984708953  0.488227199910259 		Uiso   ? 		C 		-0.00592
C 1.0  		0.10640872081949102 		0.606075294204966  0.488227199910259 		Uiso   ? 		C 		-0.00592
C 1.0  		0.8563819292999253 		0.8560032505781477  0.488227199910259 		Uiso   ? 		C 		-0.00592
C 1.0  		0.8573286261043691 		0.35576865911000655  0.8100822790467114 		Uiso   ? 		C 		-0.00936
C 1.0  		0.35747271335800546 		0.8558139112172589  0.8100822790467114 		Uiso   ? 		C 		-0.00936
C 1.0  		0.10735541762393491 		0.10565136337593596  0.8100822790467114 		Uiso   ? 		C 		-0.00936
C 1.0  		0.6074006697311873 		0.6056966154831883  0.8100822790467114 		Uiso   ? 		C 		-0.00936
C 1.0  		0.6074006697311873 		0.10565136337593596  0.8100822790467114 		Uiso   ? 		C 		-0.00936
C 1.0  		0.3574727133580055 		0.35576865911000655  0.8100822790467114 		Uiso   ? 		C 		-0.00936
C 1.0  		0.10735541762393487 		0.6056966154831883  0.8100822790467114 		Uiso   ? 		C 		-0.00936
C 1.0  		0.8573286261043691 		0.8558139112172589  0.8100822790467114 		Uiso   ? 		C 		-0.00936
H 1.0  		0.9620332926758614 		0.38947106534820836  0.22385261743600177 		Uiso   ? 		H 		0.13393
H 1.0  		0.46217737992949753 		0.8895163174554609  0.22385261743600177 		Uiso   ? 		H 		0.13393
H 1.0  		0.21206008419542702 		0.13954310897502653  0.22385261743600177 		Uiso   ? 		H 		0.13393
H 1.0  		0.7121053363026795 		0.6393990217213902  0.22385261743600177 		Uiso   ? 		H 		0.13393
H 1.0  		0.7121053363026795 		0.13954310897502653  0.22385261743600177 		Uiso   ? 		H 		0.13393
H 1.0  		0.4621773799294976 		0.38947106534820836  0.22385261743600177 		Uiso   ? 		H 		0.13393
H 1.0  		0.212060084195427 		0.6393990217213902  0.22385261743600177 		Uiso   ? 		H 		0.13393
H 1.0  		0.9620332926758614 		0.8895163174554609  0.22385261743600177 		Uiso   ? 		H 		0.13393
H 1.0  		0.9620332926758614 		0.3892817259873196  0.5480283377420457 		Uiso   ? 		H 		0.13310
H 1.0  		0.46198804056860876 		0.8893269780945721  0.5480283377420457 		Uiso   ? 		H 		0.13310
H 1.0  		0.21206008419542702 		0.13935376961413776  0.5480283377420457 		Uiso   ? 		H 		0.13310
H 1.0  		0.7119159969417906 		0.6393990217213902  0.5480283377420457 		Uiso   ? 		H 		0.13310
H 1.0  		0.7119159969417906 		0.13935376961413776  0.5480283377420457 		Uiso   ? 		H 		0.13310
H 1.0  		0.4619880405686088 		0.3892817259873196  0.5480283377420457 		Uiso   ? 		H 		0.13310
H 1.0  		0.212060084195427 		0.6393990217213902  0.5480283377420457 		Uiso   ? 		H 		0.13310
H 1.0  		0.9620332926758614 		0.8893269780945721  0.5480283377420457 		Uiso   ? 		H 		0.13310
H 1.0  		0.04127598067375275 		0.11171022292437673  0.42414180145768754 		Uiso   ? 		H 		0.11630
H 1.0  		0.5413212327810052 		0.6117554750316291  0.42414180145768754 		Uiso   ? 		H 		0.11630
H 1.0  		0.2913932764078233 		0.8618727707656997  0.42414180145768754 		Uiso   ? 		H 		0.11630
H 1.0  		0.7914385285150758 		0.3618275186584473  0.42414180145768754 		Uiso   ? 		H 		0.11630
H 1.0  		0.7914385285150758 		0.8618727707656997  0.42414180145768754 		Uiso   ? 		H 		0.11630
H 1.0  		0.5413212327810052 		0.11171022292437673  0.42414180145768754 		Uiso   ? 		H 		0.11630
H 1.0  		0.29139327640782337 		0.3618275186584473  0.42414180145768754 		Uiso   ? 		H 		0.11630
H 1.0  		0.041275980673752724 		0.6117554750316291  0.42414180145768754 		Uiso   ? 		H 		0.11630
H 1.0  		0.041843998756419074 		0.11171022292437673  0.7483175217637316 		Uiso   ? 		H 		0.11625
H 1.0  		0.5418892508636716 		0.6117554750316291  0.7483175217637316 		Uiso   ? 		H 		0.11625
H 1.0  		0.29196129449048963 		0.8618727707656997  0.7483175217637316 		Uiso   ? 		H 		0.11625
H 1.0  		0.7918172072368534 		0.3618275186584473  0.7483175217637316 		Uiso   ? 		H 		0.11625
H 1.0  		0.7918172072368534 		0.8618727707656997  0.7483175217637316 		Uiso   ? 		H 		0.11625
H 1.0  		0.5418892508636716 		0.11171022292437673  0.7483175217637316 		Uiso   ? 		H 		0.11625
H 1.0  		0.2919612944904897 		0.3618275186584473  0.7483175217637316 		Uiso   ? 		H 		0.11625
H 1.0  		0.041843998756419046 		0.6117554750316291  0.7483175217637316 		Uiso   ? 		H 		0.11625
H 1.0  		0.12269190585592561 		0.1849845555883323  0.3912958033650047 		Uiso   ? 		H 		0.31103
H 1.0  		0.6227371579631781 		0.6848404683346959  0.3912958033650047 		Uiso   ? 		H 		0.31103
H 1.0  		0.3728092015899962 		0.9349577640687665  0.3912958033650047 		Uiso   ? 		H 		0.31103
H 1.0  		0.8728544536972487 		0.43491251196151415  0.3912958033650047 		Uiso   ? 		H 		0.31103
H 1.0  		0.8728544536972486 		0.9349577640687665  0.3912958033650047 		Uiso   ? 		H 		0.31103
H 1.0  		0.6227371579631781 		0.1849845555883323  0.3912958033650047 		Uiso   ? 		H 		0.31103
H 1.0  		0.37280920158999625 		0.43491251196151415  0.3912958033650047 		Uiso   ? 		H 		0.31103
H 1.0  		0.12269190585592558 		0.6848404683346959  0.3912958033650047 		Uiso   ? 		H 		0.31103
H 1.0  		0.12439596010392458 		0.1863099311145537  0.7167210996854442 		Uiso   ? 		H 		0.31031
H 1.0  		0.624441212211177 		0.6861658438609174  0.7167210996854442 		Uiso   ? 		H 		0.31031
H 1.0  		0.3743239164771064 		0.936283139594988  0.7167210996854442 		Uiso   ? 		H 		0.31031
H 1.0  		0.8743691685843589 		0.4362378874877355  0.7167210996854442 		Uiso   ? 		H 		0.31031
H 1.0  		0.8743691685843588 		0.936283139594988  0.7167210996854442 		Uiso   ? 		H 		0.31031
H 1.0  		0.624441212211177 		0.1863099311145537  0.7167210996854442 		Uiso   ? 		H 		0.31031
H 1.0  		0.37432391647710644 		0.4362378874877355  0.7167210996854442 		Uiso   ? 		H 		0.31031
H 1.0  		0.12439596010392455 		0.6861658438609174  0.7167210996854442 		Uiso   ? 		H 		0.31031
H 1.0  		0.10943815059371141 		0.19937434701587914  0.36666130479549247 		Uiso   ? 		H 		0.32052
H 1.0  		0.6092940633400751 		0.6994195991231316  0.36666130479549247 		Uiso   ? 		H 		0.32052
H 1.0  		0.3593661069668932 		0.9493475554963134  0.36666130479549247 		Uiso   ? 		H 		0.32052
H 1.0  		0.8594113590741457 		0.449302303389061  0.36666130479549247 		Uiso   ? 		H 		0.32052
H 1.0  		0.8594113590741456 		0.9493475554963134  0.36666130479549247 		Uiso   ? 		H 		0.32052
H 1.0  		0.6092940633400751 		0.19937434701587914  0.36666130479549247 		Uiso   ? 		H 		0.32052
H 1.0  		0.35936610696689325 		0.449302303389061  0.36666130479549247 		Uiso   ? 		H 		0.32052
H 1.0  		0.10943815059371138 		0.6994195991231316  0.36666130479549247 		Uiso   ? 		H 		0.32052
H 1.0  		0.1101955080372665 		0.19994236509854546  0.692086601115932 		Uiso   ? 		H 		0.32099
H 1.0  		0.6102407601445189 		0.6997982778449091  0.692086601115932 		Uiso   ? 		H 		0.32099
H 1.0  		0.3601234644104483 		0.9499155735789798  0.692086601115932 		Uiso   ? 		H 		0.32099
H 1.0  		0.8601687165177008 		0.4498703214717273  0.692086601115932 		Uiso   ? 		H 		0.32099
H 1.0  		0.8601687165177007 		0.9499155735789798  0.692086601115932 		Uiso   ? 		H 		0.32099
H 1.0  		0.6102407601445189 		0.19994236509854546  0.692086601115932 		Uiso   ? 		H 		0.32099
H 1.0  		0.36012346441044835 		0.4498703214717273  0.692086601115932 		Uiso   ? 		H 		0.32099
H 1.0  		0.11019550803726648 		0.6997982778449091  0.692086601115932 		Uiso   ? 		H 		0.32099
H 1.0  		0.1365136792008061 		0.28798516791182543  0.42378477973928885 		Uiso   ? 		H 		0.12600
H 1.0  		0.6363695919471698 		0.7880304200190779  0.42378477973928885 		Uiso   ? 		H 		0.12600
H 1.0  		0.386441635573988 		0.0380572115386436  0.42378477973928885 		Uiso   ? 		H 		0.12600
H 1.0  		0.8864868876812405 		0.5379131242850073  0.42378477973928885 		Uiso   ? 		H 		0.12600
H 1.0  		0.8864868876812405 		0.0380572115386436  0.42378477973928885 		Uiso   ? 		H 		0.12600
H 1.0  		0.6363695919471698 		0.28798516791182543  0.42378477973928885 		Uiso   ? 		H 		0.12600
H 1.0  		0.3864416355739879 		0.5379131242850073  0.42378477973928885 		Uiso   ? 		H 		0.12600
H 1.0  		0.13651367920080607 		0.7880304200190779  0.42378477973928885 		Uiso   ? 		H 		0.12600
H 1.0  		0.13594566111813977 		0.2904465796033795  0.7467109240309373 		Uiso   ? 		H 		0.12519
H 1.0  		0.6358015738645035 		0.7903024923497433  0.7467109240309373 		Uiso   ? 		H 		0.12519
H 1.0  		0.3858736174913216 		0.04032928386930888  0.7467109240309373 		Uiso   ? 		H 		0.12519
H 1.0  		0.8859188695985741 		0.5403745359765614  0.7467109240309373 		Uiso   ? 		H 		0.12519
H 1.0  		0.8859188695985741 		0.04032928386930888  0.7467109240309373 		Uiso   ? 		H 		0.12519
H 1.0  		0.6358015738645035 		0.2904465796033795  0.7467109240309373 		Uiso   ? 		H 		0.12519
H 1.0  		0.38587361749132154 		0.5403745359765614  0.7467109240309373 		Uiso   ? 		H 		0.12519
H 1.0  		0.13594566111813974 		0.7903024923497433  0.7467109240309373 		Uiso   ? 		H 		0.12519
H 1.0  		0.8878122632074619 		0.3298291666682445  0.16780020764740164 		Uiso   ? 		H 		0.12450
H 1.0  		0.38776701110020934 		0.829874418775497  0.16780020764740164 		Uiso   ? 		H 		0.12450
H 1.0  		0.13783905472702754 		0.07990121029506267  0.16780020764740164 		Uiso   ? 		H 		0.12450
H 1.0  		0.63788430683428 		0.5799464624023152  0.16780020764740164 		Uiso   ? 		H 		0.12450
H 1.0  		0.63788430683428 		0.07990121029506267  0.16780020764740164 		Uiso   ? 		H 		0.12450
H 1.0  		0.3877670111002094 		0.3298291666682445  0.16780020764740164 		Uiso   ? 		H 		0.12450
H 1.0  		0.1378390547270275 		0.5799464624023152  0.16780020764740164 		Uiso   ? 		H 		0.12450
H 1.0  		0.8878122632074619 		0.829874418775497  0.16780020764740164 		Uiso   ? 		H 		0.12450
H 1.0  		0.887622923846573 		0.3298291666682445  0.49019081936145203 		Uiso   ? 		H 		0.12366
H 1.0  		0.38757767173932056 		0.829874418775497  0.49019081936145203 		Uiso   ? 		H 		0.12366
H 1.0  		0.13746037600525 		0.07990121029506267  0.49019081936145203 		Uiso   ? 		H 		0.12366
H 1.0  		0.6375056281125024 		0.5799464624023152  0.49019081936145203 		Uiso   ? 		H 		0.12366
H 1.0  		0.6375056281125024 		0.07990121029506267  0.49019081936145203 		Uiso   ? 		H 		0.12366
H 1.0  		0.3875776717393206 		0.3298291666682445  0.49019081936145203 		Uiso   ? 		H 		0.12366
H 1.0  		0.13746037600524996 		0.5799464624023152  0.49019081936145203 		Uiso   ? 		H 		0.12366
H 1.0  		0.887622923846573 		0.829874418775497  0.49019081936145203 		Uiso   ? 		H 		0.12366
H 1.0  		0.8897056568163495 		0.33096520283357717  0.8097252573283126 		Uiso   ? 		H 		0.11831
H 1.0  		0.389660404709097 		0.8310104549408296  0.8097252573283126 		Uiso   ? 		H 		0.11831
H 1.0  		0.1397324483359153 		0.08103724646039531  0.8097252573283126 		Uiso   ? 		H 		0.11831
H 1.0  		0.639588361082279 		0.580893159206759  0.8097252573283126 		Uiso   ? 		H 		0.11831
H 1.0  		0.639588361082279 		0.08103724646039531  0.8097252573283126 		Uiso   ? 		H 		0.11831
H 1.0  		0.3896604047090971 		0.33096520283357717  0.8097252573283126 		Uiso   ? 		H 		0.11831
H 1.0  		0.13973244833591528 		0.580893159206759  0.8097252573283126 		Uiso   ? 		H 		0.11831
H 1.0  		0.8897056568163495 		0.8310104549408296  0.8097252573283126 		Uiso   ? 		H 		0.11831
H 1.0  		0.8069643561079551 		0.19501954171543734  0.197433010274496 		Uiso   ? 		H 		0.44588
H 1.0  		0.30691910400070277 		0.694875454461801  0.197433010274496 		Uiso   ? 		H 		0.44588
H 1.0  		0.05699114762752095 		0.9449927501958716  0.197433010274496 		Uiso   ? 		H 		0.44588
H 1.0  		0.5568470603738847 		0.44494749808861916  0.197433010274496 		Uiso   ? 		H 		0.44588
H 1.0  		0.5568470603738845 		0.9449927501958716  0.197433010274496 		Uiso   ? 		H 		0.44588
H 1.0  		0.3069191040007028 		0.19501954171543734  0.197433010274496 		Uiso   ? 		H 		0.44588
H 1.0  		0.05699114762752098 		0.44494749808861916  0.197433010274496 		Uiso   ? 		H 		0.44588
H 1.0  		0.8069643561079551 		0.694875454461801  0.197433010274496 		Uiso   ? 		H 		0.44588
H 1.0  		0.05490841465774446 		0.44475815872773045  0.5233938391725336 		Uiso   ? 		H 		0.45909
H 1.0  		0.5549536667649968 		0.9448034108349829  0.5233938391725336 		Uiso   ? 		H 		0.45909
H 1.0  		0.30483637103092637 		0.19483020235454854  0.5233938391725336 		Uiso   ? 		H 		0.45909
H 1.0  		0.8048816231381788 		0.6946861151009123  0.5233938391725336 		Uiso   ? 		H 		0.45909
H 1.0  		0.8048816231381788 		0.19483020235454854  0.5233938391725336 		Uiso   ? 		H 		0.45909
H 1.0  		0.5549536667649969 		0.44475815872773045  0.5233938391725336 		Uiso   ? 		H 		0.45909
H 1.0  		0.3048363710309263 		0.6946861151009123  0.5233938391725336 		Uiso   ? 		H 		0.45909
H 1.0  		0.05490841465774443 		0.9448034108349829  0.5233938391725336 		Uiso   ? 		H 		0.45909
H 1.0  		0.8035562476119573 		0.19767029276788017  0.8497116897889699 		Uiso   ? 		H 		0.45966
H 1.0  		0.30351099550470484 		0.6977155448751327  0.8497116897889699 		Uiso   ? 		H 		0.45966
H 1.0  		0.053583039131523014 		0.9478328406092033  0.8497116897889699 		Uiso   ? 		H 		0.45966
H 1.0  		0.5536282912387755 		0.44778758850195083  0.8497116897889699 		Uiso   ? 		H 		0.45966
H 1.0  		0.5536282912387754 		0.9478328406092033  0.8497116897889699 		Uiso   ? 		H 		0.45966
H 1.0  		0.3035109955047049 		0.19767029276788017  0.8497116897889699 		Uiso   ? 		H 		0.45966
H 1.0  		0.05358303913152304 		0.44778758850195083  0.8497116897889699 		Uiso   ? 		H 		0.45966
H 1.0  		0.8035562476119573 		0.6977155448751327  0.8497116897889699 		Uiso   ? 		H 		0.45966
H 1.0  		0.9624119713976389 		0.13916443025324898  0.3852264341522263 		Uiso   ? 		H 		0.13456
H 1.0  		0.46236671929038636 		0.6390203429996126  0.3852264341522263 		Uiso   ? 		H 		0.13456
H 1.0  		0.2124387629172045 		0.8891376387336832  0.3852264341522263 		Uiso   ? 		H 		0.13456
H 1.0  		0.7122946756635682 		0.3890923866264308  0.3852264341522263 		Uiso   ? 		H 		0.13456
H 1.0  		0.7122946756635682 		0.8891376387336832  0.3852264341522263 		Uiso   ? 		H 		0.13456
H 1.0  		0.4623667192903864 		0.13916443025324898  0.3852264341522263 		Uiso   ? 		H 		0.13456
H 1.0  		0.21243876291720454 		0.3890923866264308  0.3852264341522263 		Uiso   ? 		H 		0.13456
H 1.0  		0.9624119713976389 		0.6390203429996126  0.3852264341522263 		Uiso   ? 		H 		0.13456
H 1.0  		0.9622226320367501 		0.13878575153147144  0.7102947087542671 		Uiso   ? 		H 		0.13364
H 1.0  		0.46217737992949753 		0.6386416642778351  0.7102947087542671 		Uiso   ? 		H 		0.13364
H 1.0  		0.21224942355631574 		0.8887589600119057  0.7102947087542671 		Uiso   ? 		H 		0.13364
H 1.0  		0.7122946756635682 		0.38871370790465326  0.7102947087542671 		Uiso   ? 		H 		0.13364
H 1.0  		0.7122946756635682 		0.8887589600119057  0.7102947087542671 		Uiso   ? 		H 		0.13364
H 1.0  		0.4621773799294976 		0.13878575153147144  0.7102947087542671 		Uiso   ? 		H 		0.13364
H 1.0  		0.21224942355631576 		0.38871370790465326  0.7102947087542671 		Uiso   ? 		H 		0.13364
H 1.0  		0.9622226320367501 		0.6386416642778351  0.7102947087542671 		Uiso   ? 		H 		0.13364
H 1.0  		0.04146532003464151 		0.36315289418466873  0.26294649560066236 		Uiso   ? 		H 		0.11554
H 1.0  		0.5415105721418939 		0.8630088069310323  0.26294649560066236 		Uiso   ? 		H 		0.11554
H 1.0  		0.29158261576871214 		0.11303559845059814  0.26294649560066236 		Uiso   ? 		H 		0.11554
H 1.0  		0.7914385285150758 		0.6130808505578506  0.26294649560066236 		Uiso   ? 		H 		0.11554
H 1.0  		0.7914385285150758 		0.11303559845059814  0.26294649560066236 		Uiso   ? 		H 		0.11554
H 1.0  		0.5415105721418939 		0.36315289418466873  0.26294649560066236 		Uiso   ? 		H 		0.11554
H 1.0  		0.2915826157687121 		0.6130808505578506  0.26294649560066236 		Uiso   ? 		H 		0.11554
H 1.0  		0.04146532003464148 		0.8630088069310323  0.26294649560066236 		Uiso   ? 		H 		0.11554
H 1.0  		0.04127598067375274 		0.3618275186584473  0.5862296616107096 		Uiso   ? 		H 		0.11609
H 1.0  		0.5413212327810052 		0.8618727707656997  0.5862296616107096 		Uiso   ? 		H 		0.11609
H 1.0  		0.29139327640782337 		0.1118995622852655  0.5862296616107096 		Uiso   ? 		H 		0.11609
H 1.0  		0.7914385285150758 		0.611944814392518  0.5862296616107096 		Uiso   ? 		H 		0.11609
H 1.0  		0.7914385285150758 		0.1118995622852655  0.5862296616107096 		Uiso   ? 		H 		0.11609
H 1.0  		0.5413212327810052 		0.3618275186584473  0.5862296616107096 		Uiso   ? 		H 		0.11609
H 1.0  		0.2913932764078233 		0.611944814392518  0.5862296616107096 		Uiso   ? 		H 		0.11609
H 1.0  		0.0412759806737527 		0.8618727707656997  0.5862296616107096 		Uiso   ? 		H 		0.11609
H 1.0  		0.8756945441105802 		0.18441653750566597  0.2270658129015903 		Uiso   ? 		H 		0.31117
H 1.0  		0.3758386313642166 		0.6844617896129185  0.2270658129015903 		Uiso   ? 		H 		0.31117
H 1.0  		0.12572133563014595 		0.934579085346989  0.2270658129015903 		Uiso   ? 		H 		0.31117
H 1.0  		0.6257665877373985 		0.4345338332397366  0.2270658129015903 		Uiso   ? 		H 		0.31117
H 1.0  		0.6257665877373983 		0.934579085346989  0.2270658129015903 		Uiso   ? 		H 		0.31117
H 1.0  		0.37583863136421664 		0.18441653750566597  0.2270658129015903 		Uiso   ? 		H 		0.31117
H 1.0  		0.12572133563014598 		0.4345338332397366  0.2270658129015903 		Uiso   ? 		H 		0.31117
H 1.0  		0.8756945441105802 		0.6844617896129185  0.2270658129015903 		Uiso   ? 		H 		0.31117
H 1.0  		0.8728544536972487 		0.1849845555883323  0.5528481309404286 		Uiso   ? 		H 		0.31162
H 1.0  		0.3729985409508849 		0.6848404683346959  0.5528481309404286 		Uiso   ? 		H 		0.31162
H 1.0  		0.12288124521681434 		0.9349577640687665  0.5528481309404286 		Uiso   ? 		H 		0.31162
H 1.0  		0.6229264973240668 		0.43491251196151415  0.5528481309404286 		Uiso   ? 		H 		0.31162
H 1.0  		0.6229264973240667 		0.9349577640687665  0.5528481309404286 		Uiso   ? 		H 		0.31162
H 1.0  		0.37299854095088497 		0.1849845555883323  0.5528481309404286 		Uiso   ? 		H 		0.31162
H 1.0  		0.12288124521681437 		0.43491251196151415  0.5528481309404286 		Uiso   ? 		H 		0.31162
H 1.0  		0.8728544536972487 		0.6848404683346959  0.5528481309404286 		Uiso   ? 		H 		0.31162
H 1.0  		0.8611154133221447 		0.19937434701587914  0.20314535776887557 		Uiso   ? 		H 		0.31951
H 1.0  		0.36107016121489216 		0.6994195991231316  0.20314535776887557 		Uiso   ? 		H 		0.31951
H 1.0  		0.11114220484171035 		0.9493475554963134  0.20314535776887557 		Uiso   ? 		H 		0.31951
H 1.0  		0.6111874569489629 		0.449302303389061  0.20314535776887557 		Uiso   ? 		H 		0.31951
H 1.0  		0.6111874569489628 		0.9493475554963134  0.20314535776887557 		Uiso   ? 		H 		0.31951
H 1.0  		0.3610701612148922 		0.19937434701587914  0.20314535776887557 		Uiso   ? 		H 		0.31951
H 1.0  		0.11114220484171038 		0.449302303389061  0.20314535776887557 		Uiso   ? 		H 		0.31951
H 1.0  		0.8611154133221447 		0.6994195991231316  0.20314535776887557 		Uiso   ? 		H 		0.31951
H 1.0  		0.8594113590741457 		0.1995636863767679  0.5282136323709165 		Uiso   ? 		H 		0.31999
H 1.0  		0.3593661069668932 		0.6994195991231316  0.5282136323709165 		Uiso   ? 		H 		0.31999
H 1.0  		0.10943815059371137 		0.9495368948572022  0.5282136323709165 		Uiso   ? 		H 		0.31999
H 1.0  		0.6094834027009638 		0.4494916427499498  0.5282136323709165 		Uiso   ? 		H 		0.31999
H 1.0  		0.6094834027009637 		0.9495368948572022  0.5282136323709165 		Uiso   ? 		H 		0.31999
H 1.0  		0.35936610696689325 		0.1995636863767679  0.5282136323709165 		Uiso   ? 		H 		0.31999
H 1.0  		0.1094381505937114 		0.4494916427499498  0.5282136323709165 		Uiso   ? 		H 		0.31999
H 1.0  		0.8594113590741457 		0.6994195991231316  0.5282136323709165 		Uiso   ? 		H 		0.31999
H 1.0  		0.8601687165177008 		0.21187074483453824  0.835966353630619 		Uiso   ? 		H 		0.41688
H 1.0  		0.3601234644104483 		0.7119159969417906  0.835966353630619 		Uiso   ? 		H 		0.41688
H 1.0  		0.11000616867637769 		0.9618439533149725  0.835966353630619 		Uiso   ? 		H 		0.41688
H 1.0  		0.6100514207836302 		0.4619880405686088  0.835966353630619 		Uiso   ? 		H 		0.41688
H 1.0  		0.6100514207836301 		0.9618439533149725  0.835966353630619 		Uiso   ? 		H 		0.41688
H 1.0  		0.36012346441044835 		0.21187074483453824  0.835966353630619 		Uiso   ? 		H 		0.41688
H 1.0  		0.11000616867637772 		0.4619880405686088  0.835966353630619 		Uiso   ? 		H 		0.41688
H 1.0  		0.8601687165177008 		0.7119159969417906  0.835966353630619 		Uiso   ? 		H 		0.41688
H 1.0  		0.8847828334332415 		0.28722781046827034  0.26258947388226367 		Uiso   ? 		H 		0.12648
H 1.0  		0.38473758132598895 		0.7872730625755229  0.26258947388226367 		Uiso   ? 		H 		0.12648
H 1.0  		0.13480962495280716 		0.037110514734199726  0.26258947388226367 		Uiso   ? 		H 		0.12648
H 1.0  		0.6346655376991708 		0.5371557668414522  0.26258947388226367 		Uiso   ? 		H 		0.12648
H 1.0  		0.6346655376991708 		0.037110514734199726  0.26258947388226367 		Uiso   ? 		H 		0.12648
H 1.0  		0.384737581325989 		0.28722781046827034  0.26258947388226367 		Uiso   ? 		H 		0.12648
H 1.0  		0.13480962495280713 		0.5371557668414522  0.26258947388226367 		Uiso   ? 		H 		0.12648
H 1.0  		0.8847828334332415 		0.7872730625755229  0.26258947388226367 		Uiso   ? 		H 		0.12648
H 1.0  		0.8862975483203517 		0.28798516791182543  0.5851585964555134 		Uiso   ? 		H 		0.12634
H 1.0  		0.38625229621309914 		0.7880304200190779  0.5851585964555134 		Uiso   ? 		H 		0.12634
H 1.0  		0.13632433983991735 		0.0380572115386436  0.5851585964555134 		Uiso   ? 		H 		0.12634
H 1.0  		0.6363695919471698 		0.5379131242850073  0.5851585964555134 		Uiso   ? 		H 		0.12634
H 1.0  		0.6363695919471698 		0.0380572115386436  0.5851585964555134 		Uiso   ? 		H 		0.12634
H 1.0  		0.3862522962130992 		0.28798516791182543  0.5851585964555134 		Uiso   ? 		H 		0.12634
H 1.0  		0.13632433983991732 		0.5379131242850073  0.5851585964555134 		Uiso   ? 		H 		0.12634
H 1.0  		0.8862975483203517 		0.7880304200190779  0.5851585964555134 		Uiso   ? 		H 		0.12634
H 1.0  		0.13746037600524996 		0.33020784539002207  0.32899551350442685 		Uiso   ? 		H 		0.12449
H 1.0  		0.6375056281125024 		0.8302530974972745  0.32899551350442685 		Uiso   ? 		H 		0.12449
H 1.0  		0.3875776717393206 		0.08027988901684022  0.32899551350442685 		Uiso   ? 		H 		0.12449
H 1.0  		0.8874335844856843 		0.5803251411240926  0.32899551350442685 		Uiso   ? 		H 		0.12449
H 1.0  		0.8874335844856843 		0.08027988901684022  0.32899551350442685 		Uiso   ? 		H 		0.12449
H 1.0  		0.6375056281125024 		0.33020784539002207  0.32899551350442685 		Uiso   ? 		H 		0.12449
H 1.0  		0.38757767173932056 		0.5803251411240926  0.32899551350442685 		Uiso   ? 		H 		0.12449
H 1.0  		0.13746037600524993 		0.8302530974972745  0.32899551350442685 		Uiso   ? 		H 		0.12449
H 1.0  		0.13746037600524996 		0.3300185060291333  0.6533497446696702 		Uiso   ? 		H 		0.12362
H 1.0  		0.6375056281125024 		0.8300637581363858  0.6533497446696702 		Uiso   ? 		H 		0.12362
H 1.0  		0.3875776717393206 		0.08009054965595144  0.6533497446696702 		Uiso   ? 		H 		0.12362
H 1.0  		0.8874335844856843 		0.5799464624023152  0.6533497446696702 		Uiso   ? 		H 		0.12362
H 1.0  		0.8874335844856843 		0.08009054965595144  0.6533497446696702 		Uiso   ? 		H 		0.12362
H 1.0  		0.6375056281125024 		0.3300185060291333  0.6533497446696702 		Uiso   ? 		H 		0.12362
H 1.0  		0.38757767173932056 		0.5799464624023152  0.6533497446696702 		Uiso   ? 		H 		0.12362
H 1.0  		0.13746037600524993 		0.8300637581363858  0.6533497446696702 		Uiso   ? 		H 		0.12362
H 1.0  		0.05490841465774447 		0.1946408629936598  0.3616630007379103 		Uiso   ? 		H 		0.45824
H 1.0  		0.5549536667649969 		0.6946861151009123  0.3616630007379103 		Uiso   ? 		H 		0.45824
H 1.0  		0.3048363710309263 		0.944614071474094  0.3616630007379103 		Uiso   ? 		H 		0.45824
H 1.0  		0.8048816231381788 		0.44475815872773045  0.3616630007379103 		Uiso   ? 		H 		0.45824
H 1.0  		0.8048816231381787 		0.944614071474094  0.3616630007379103 		Uiso   ? 		H 		0.45824
H 1.0  		0.5549536667649969 		0.1946408629936598  0.3616630007379103 		Uiso   ? 		H 		0.45824
H 1.0  		0.30483637103092637 		0.44475815872773045  0.3616630007379103 		Uiso   ? 		H 		0.45824
H 1.0  		0.054908414657744445 		0.6946861151009123  0.3616630007379103 		Uiso   ? 		H 		0.45824
H 1.0  		0.05490841465774447 		0.1946408629936598  0.685660210184755 		Uiso   ? 		H 		0.45526
H 1.0  		0.5549536667649969 		0.6946861151009123  0.685660210184755 		Uiso   ? 		H 		0.45526
H 1.0  		0.3048363710309263 		0.944614071474094  0.685660210184755 		Uiso   ? 		H 		0.45526
H 1.0  		0.8048816231381788 		0.44475815872773045  0.685660210184755 		Uiso   ? 		H 		0.45526
H 1.0  		0.8048816231381787 		0.944614071474094  0.685660210184755 		Uiso   ? 		H 		0.45526
H 1.0  		0.5549536667649969 		0.1946408629936598  0.685660210184755 		Uiso   ? 		H 		0.45526
H 1.0  		0.30483637103092637 		0.44475815872773045  0.685660210184755 		Uiso   ? 		H 		0.45526
H 1.0  		0.054908414657744445 		0.6946861151009123  0.685660210184755 		Uiso   ? 		H 		0.45526
H 1.0  		0.09088289322661156 		0.17873635667900276  0.1597672189834303 		Uiso   ? 		H 		0.31311
H 1.0  		0.590928145333864 		0.6787816087862552  0.1597672189834303 		Uiso   ? 		H 		0.31311
H 1.0  		0.3410001889606821 		0.928709565159437  0.1597672189834303 		Uiso   ? 		H 		0.31311
H 1.0  		0.8408561017070458 		0.42866431305218455  0.1597672189834303 		Uiso   ? 		H 		0.31311
H 1.0  		0.8408561017070457 		0.928709565159437  0.1597672189834303 		Uiso   ? 		H 		0.31311
H 1.0  		0.590928145333864 		0.17873635667900276  0.1597672189834303 		Uiso   ? 		H 		0.31311
H 1.0  		0.3410001889606822 		0.42866431305218455  0.1597672189834303 		Uiso   ? 		H 		0.31311
H 1.0  		0.09088289322661153 		0.6787816087862552  0.1597672189834303 		Uiso   ? 		H 		0.31311
H 1.0  		0.08936817833950136 		0.17854701731811398  0.48644209131826543 		Uiso   ? 		H 		0.31021
H 1.0  		0.5894134304467538 		0.6785922694253664  0.48644209131826543 		Uiso   ? 		H 		0.31021
H 1.0  		0.33948547407357194 		0.9285202257985482  0.48644209131826543 		Uiso   ? 		H 		0.31021
H 1.0  		0.8393413868199356 		0.42866431305218455  0.48644209131826543 		Uiso   ? 		H 		0.31021
H 1.0  		0.8393413868199355 		0.9285202257985482  0.48644209131826543 		Uiso   ? 		H 		0.31021
H 1.0  		0.5894134304467538 		0.17854701731811398  0.48644209131826543 		Uiso   ? 		H 		0.31021
H 1.0  		0.339485474073572 		0.42866431305218455  0.48644209131826543 		Uiso   ? 		H 		0.31021
H 1.0  		0.08936817833950134 		0.6785922694253664  0.48644209131826543 		Uiso   ? 		H 		0.31021
H 1.0  		0.08728544536972485 		0.1772216417918926  0.8066905727219235 		Uiso   ? 		H 		0.31023
H 1.0  		0.5873306974769773 		0.677266893899145  0.8066905727219235 		Uiso   ? 		H 		0.31023
H 1.0  		0.33721340174290665 		0.9271948502723268  0.8066905727219235 		Uiso   ? 		H 		0.31023
H 1.0  		0.8372586538501591 		0.4273389375259632  0.8066905727219235 		Uiso   ? 		H 		0.31023
H 1.0  		0.837258653850159 		0.9271948502723268  0.8066905727219235 		Uiso   ? 		H 		0.31023
H 1.0  		0.5873306974769773 		0.1772216417918926  0.8066905727219235 		Uiso   ? 		H 		0.31023
H 1.0  		0.3372134017429067 		0.4273389375259632  0.8066905727219235 		Uiso   ? 		H 		0.31023
H 1.0  		0.08728544536972482 		0.677266893899145  0.8066905727219235 		Uiso   ? 		H 		0.31023
H 1.0  		0.12212388777325929 		0.18952870024966287  0.16137381671622456 		Uiso   ? 		H 		0.32686
H 1.0  		0.6221691398805117 		0.6895739523569153  0.16137381671622456 		Uiso   ? 		H 		0.32686
H 1.0  		0.3720518441464411 		0.9395019087300971  0.16137381671622456 		Uiso   ? 		H 		0.32686
H 1.0  		0.8720970962536936 		0.4396459959837335  0.16137381671622456 		Uiso   ? 		H 		0.32686
H 1.0  		0.8720970962536935 		0.9395019087300971  0.16137381671622456 		Uiso   ? 		H 		0.32686
H 1.0  		0.6221691398805117 		0.18952870024966287  0.16137381671622456 		Uiso   ? 		H 		0.32686
H 1.0  		0.37205184414644116 		0.4396459959837335  0.16137381671622456 		Uiso   ? 		H 		0.32686
H 1.0  		0.12212388777325926 		0.6895739523569153  0.16137381671622456 		Uiso   ? 		H 		0.32686
H 1.0  		0.1206091728861491 		0.18915002152788535  0.4866206021774648 		Uiso   ? 		H 		0.32786
H 1.0  		0.6206544249934015 		0.6891952736351378  0.4866206021774648 		Uiso   ? 		H 		0.32786
H 1.0  		0.3705371292593309 		0.9391232300083195  0.4866206021774648 		Uiso   ? 		H 		0.32786
H 1.0  		0.8705823813665834 		0.4392673172619559  0.4866206021774648 		Uiso   ? 		H 		0.32786
H 1.0  		0.8705823813665833 		0.9391232300083195  0.4866206021774648 		Uiso   ? 		H 		0.32786
H 1.0  		0.6206544249934015 		0.18915002152788535  0.4866206021774648 		Uiso   ? 		H 		0.32786
H 1.0  		0.37053712925933097 		0.4392673172619559  0.4866206021774648 		Uiso   ? 		H 		0.32786
H 1.0  		0.12060917288614907 		0.6891952736351378  0.4866206021774648 		Uiso   ? 		H 		0.32786
H 1.0  		0.11795842183370626 		0.18915002152788535  0.8074046161587208 		Uiso   ? 		H 		0.31949
H 1.0  		0.6180036739409587 		0.6891952736351378  0.8074046161587208 		Uiso   ? 		H 		0.31949
H 1.0  		0.3678863782068881 		0.9391232300083195  0.8074046161587208 		Uiso   ? 		H 		0.31949
H 1.0  		0.8679316303141404 		0.4392673172619559  0.8074046161587208 		Uiso   ? 		H 		0.31949
H 1.0  		0.8679316303141403 		0.9391232300083195  0.8074046161587208 		Uiso   ? 		H 		0.31949
H 1.0  		0.6180036739409587 		0.18915002152788535  0.8074046161587208 		Uiso   ? 		H 		0.31949
H 1.0  		0.36788637820688813 		0.4392673172619559  0.8074046161587208 		Uiso   ? 		H 		0.31949
H 1.0  		0.11795842183370624 		0.6891952736351378  0.8074046161587208 		Uiso   ? 		H 		0.31949
H 1.0  		0.03843589026042114 		0.11208890164615427  0.22296006314000497 		Uiso   ? 		H 		0.13039
H 1.0  		0.5384811423676735 		0.6121341537534067  0.22296006314000497 		Uiso   ? 		H 		0.13039
H 1.0  		0.2883638466336029 		0.8620621101265885  0.22296006314000497 		Uiso   ? 		H 		0.13039
H 1.0  		0.7884090987408553 		0.3620168580193361  0.22296006314000497 		Uiso   ? 		H 		0.13039
H 1.0  		0.7884090987408553 		0.8620621101265885  0.22296006314000497 		Uiso   ? 		H 		0.13039
H 1.0  		0.5384811423676735 		0.11208890164615427  0.22296006314000497 		Uiso   ? 		H 		0.13039
H 1.0  		0.288363846633603 		0.3620168580193361  0.22296006314000497 		Uiso   ? 		H 		0.13039
H 1.0  		0.038435890260421116 		0.6121341537534067  0.22296006314000497 		Uiso   ? 		H 		0.13039
H 1.0  		0.03824655089953237 		0.11227824100704305  0.547135783446049 		Uiso   ? 		H 		0.13328
H 1.0  		0.5381024636458961 		0.6123234931142955  0.547135783446049 		Uiso   ? 		H 		0.13328
H 1.0  		0.28817450727271415 		0.8622514494874773  0.547135783446049 		Uiso   ? 		H 		0.13328
H 1.0  		0.7882197593799667 		0.36239553674111363  0.547135783446049 		Uiso   ? 		H 		0.13328
H 1.0  		0.7882197593799667 		0.8622514494874773  0.547135783446049 		Uiso   ? 		H 		0.13328
H 1.0  		0.5381024636458961 		0.11227824100704305  0.547135783446049 		Uiso   ? 		H 		0.13328
H 1.0  		0.2881745072727142 		0.36239553674111363  0.547135783446049 		Uiso   ? 		H 		0.13328
H 1.0  		0.03824655089953234 		0.6123234931142955  0.547135783446049 		Uiso   ? 		H 		0.13328
H 1.0  		0.9584358448189746 		0.3866309749348767  0.42485584489448497 		Uiso   ? 		H 		0.11872
H 1.0  		0.4585799320726109 		0.8866762270421291  0.42485584489448497 		Uiso   ? 		H 		0.11872
H 1.0  		0.20846263633854029 		0.1367030185616949  0.42485584489448497 		Uiso   ? 		H 		0.11872
H 1.0  		0.7085078884457927 		0.6367482706689473  0.42485584489448497 		Uiso   ? 		H 		0.11872
H 1.0  		0.7085078884457927 		0.1367030185616949  0.42485584489448497 		Uiso   ? 		H 		0.11872
H 1.0  		0.45857993207261094 		0.3866309749348767  0.42485584489448497 		Uiso   ? 		H 		0.11872
H 1.0  		0.20846263633854026 		0.6367482706689473  0.42485584489448497 		Uiso   ? 		H 		0.11872
H 1.0  		0.9584358448189746 		0.8866762270421291  0.42485584489448497 		Uiso   ? 		H 		0.11872
H 1.0  		0.9586251841798633 		0.3856842781304329  0.7497456086373265 		Uiso   ? 		H 		0.11966
H 1.0  		0.4585799320726109 		0.8857295302376853  0.7497456086373265 		Uiso   ? 		H 		0.11966
H 1.0  		0.2086519756994291 		0.13575632175725103  0.7497456086373265 		Uiso   ? 		H 		0.11966
H 1.0  		0.7086972278066814 		0.6358015738645035  0.7497456086373265 		Uiso   ? 		H 		0.11966
H 1.0  		0.7086972278066814 		0.13575632175725103  0.7497456086373265 		Uiso   ? 		H 		0.11966
H 1.0  		0.45857993207261094 		0.3856842781304329  0.7497456086373265 		Uiso   ? 		H 		0.11966
H 1.0  		0.20865197569942906 		0.6358015738645035  0.7497456086373265 		Uiso   ? 		H 		0.11966
H 1.0  		0.9586251841798633 		0.8857295302376853  0.7497456086373265 		Uiso   ? 		H 		0.11966
H 1.0  		0.8773985983585793 		0.31525003587980893  0.3912958033650047 		Uiso   ? 		H 		0.31297
H 1.0  		0.37735334625132677 		0.8151059486261725  0.3912958033650047 		Uiso   ? 		H 		0.31297
H 1.0  		0.12742538987814497 		0.06513274014573829  0.3912958033650047 		Uiso   ? 		H 		0.31297
H 1.0  		0.6272813026245087 		0.5651779922529907  0.3912958033650047 		Uiso   ? 		H 		0.31297
H 1.0  		0.6272813026245087 		0.06513274014573829  0.3912958033650047 		Uiso   ? 		H 		0.31297
H 1.0  		0.3773533462513268 		0.31525003587980893  0.3912958033650047 		Uiso   ? 		H 		0.31297
H 1.0  		0.12742538987814495 		0.5651779922529907  0.3912958033650047 		Uiso   ? 		H 		0.31297
H 1.0  		0.8773985983585793 		0.8151059486261725  0.3912958033650047 		Uiso   ? 		H 		0.31297
H 1.0  		0.8764519015541353 		0.314303339075365  0.7156500345302481 		Uiso   ? 		H 		0.31286
H 1.0  		0.3764066494468829 		0.8141592518217287  0.7156500345302481 		Uiso   ? 		H 		0.31286
H 1.0  		0.1264786930737011 		0.06418604334129444  0.7156500345302481 		Uiso   ? 		H 		0.31286
H 1.0  		0.6263346058200647 		0.5642312954485469  0.7156500345302481 		Uiso   ? 		H 		0.31286
H 1.0  		0.6263346058200647 		0.06418604334129444  0.7156500345302481 		Uiso   ? 		H 		0.31286
H 1.0  		0.37640664944688296 		0.314303339075365  0.7156500345302481 		Uiso   ? 		H 		0.31286
H 1.0  		0.12647869307370108 		0.5642312954485469  0.7156500345302481 		Uiso   ? 		H 		0.31286
H 1.0  		0.8764519015541353 		0.8141592518217287  0.7156500345302481 		Uiso   ? 		H 		0.31286
H 1.0  		0.8908416929816823 		0.3004815657304845  0.36666130479549247 		Uiso   ? 		H 		0.32039
H 1.0  		0.3907964408744297 		0.8005268178377369  0.36666130479549247 		Uiso   ? 		H 		0.32039
H 1.0  		0.14086848450124795 		0.050553609357302694  0.36666130479549247 		Uiso   ? 		H 		0.32039
H 1.0  		0.6409137366085004 		0.5505988614645551  0.36666130479549247 		Uiso   ? 		H 		0.32039
H 1.0  		0.6409137366085004 		0.050553609357302694  0.36666130479549247 		Uiso   ? 		H 		0.32039
H 1.0  		0.3907964408744298 		0.3004815657304845  0.36666130479549247 		Uiso   ? 		H 		0.32039
H 1.0  		0.14086848450124792 		0.5505988614645551  0.36666130479549247 		Uiso   ? 		H 		0.32039
H 1.0  		0.8908416929816823 		0.8005268178377369  0.36666130479549247 		Uiso   ? 		H 		0.32039
H 1.0  		0.8902736748990159 		0.2999135476478182  0.691015535960736 		Uiso   ? 		H 		0.32070
H 1.0  		0.3902284227917634 		0.7999587997550706  0.691015535960736 		Uiso   ? 		H 		0.32070
H 1.0  		0.14030046641858163 		0.049985591274636365  0.691015535960736 		Uiso   ? 		H 		0.32070
H 1.0  		0.6401563791649453 		0.549841504021  0.691015535960736 		Uiso   ? 		H 		0.32070
H 1.0  		0.6401563791649453 		0.049985591274636365  0.691015535960736 		Uiso   ? 		H 		0.32070
H 1.0  		0.39022842279176345 		0.2999135476478182  0.691015535960736 		Uiso   ? 		H 		0.32070
H 1.0  		0.1403004664185816 		0.549841504021  0.691015535960736 		Uiso   ? 		H 		0.32070
H 1.0  		0.8902736748990159 		0.7999587997550706  0.691015535960736 		Uiso   ? 		H 		0.32070
H 1.0  		0.8650915399008089 		0.21206008419542702  0.42414180145768754 		Uiso   ? 		H 		0.12513
H 1.0  		0.3650462877935564 		0.7121053363026795  0.42414180145768754 		Uiso   ? 		H 		0.12513
H 1.0  		0.1151183314203746 		0.9620332926758614  0.42414180145768754 		Uiso   ? 		H 		0.12513
H 1.0  		0.6149742441667384 		0.4619880405686088  0.42414180145768754 		Uiso   ? 		H 		0.12513
H 1.0  		0.6149742441667383 		0.9620332926758614  0.42414180145768754 		Uiso   ? 		H 		0.12513
H 1.0  		0.36504628779355647 		0.21206008419542702  0.42414180145768754 		Uiso   ? 		H 		0.12513
H 1.0  		0.11511833142037463 		0.4619880405686088  0.42414180145768754 		Uiso   ? 		H 		0.12513
H 1.0  		0.8650915399008089 		0.7121053363026795  0.42414180145768754 		Uiso   ? 		H 		0.12513
H 1.0  		0.8643341824572539 		0.20997735122565048  0.7467109240309373 		Uiso   ? 		H 		0.12288
H 1.0  		0.3642889303500013 		0.7100226033329029  0.7467109240309373 		Uiso   ? 		H 		0.12288
H 1.0  		0.1143609739768195 		0.9601398990669735  0.7467109240309373 		Uiso   ? 		H 		0.12288
H 1.0  		0.614406226084072 		0.46009464695972113  0.7467109240309373 		Uiso   ? 		H 		0.12288
H 1.0  		0.6144062260840719 		0.9601398990669735  0.7467109240309373 		Uiso   ? 		H 		0.12288
H 1.0  		0.36428893035000137 		0.20997735122565048  0.7467109240309373 		Uiso   ? 		H 		0.12288
H 1.0  		0.11436097397681953 		0.46009464695972113  0.7467109240309373 		Uiso   ? 		H 		0.12288
H 1.0  		0.8643341824572539 		0.7100226033329029  0.7467109240309373 		Uiso   ? 		H 		0.12288
H 1.0  		0.9211359907238861 		0.13689235792258367  0.16030275156102838 		Uiso   ? 		H 		0.12053
H 1.0  		0.4210907386166336 		0.6369376100298361  0.16030275156102838 		Uiso   ? 		H 		0.12053
H 1.0  		0.17116278224345174 		0.8870549057639067  0.16030275156102838 		Uiso   ? 		H 		0.12053
H 1.0  		0.6712080343507042 		0.3870096536566543  0.16030275156102838 		Uiso   ? 		H 		0.12053
H 1.0  		0.6712080343507042 		0.8870549057639067  0.16030275156102838 		Uiso   ? 		H 		0.12053
H 1.0  		0.42109073861663365 		0.13689235792258367  0.16030275156102838 		Uiso   ? 		H 		0.12053
H 1.0  		0.17116278224345177 		0.3870096536566543  0.16030275156102838 		Uiso   ? 		H 		0.12053
H 1.0  		0.9211359907238861 		0.6369376100298361  0.16030275156102838 		Uiso   ? 		H 		0.12053
H 1.0  		0.9196212758367759 		0.13746037600525  0.4800157003870883 		Uiso   ? 		H 		0.12102
H 1.0  		0.4195760237295234 		0.6375056281125024  0.4800157003870883 		Uiso   ? 		H 		0.12102
H 1.0  		0.16945872799545278 		0.8874335844856843  0.4800157003870883 		Uiso   ? 		H 		0.12102
H 1.0  		0.6695039801027053 		0.3875776717393206  0.4800157003870883 		Uiso   ? 		H 		0.12102
H 1.0  		0.6695039801027053 		0.8874335844856843  0.4800157003870883 		Uiso   ? 		H 		0.12102
H 1.0  		0.41957602372952346 		0.13746037600525  0.4800157003870883 		Uiso   ? 		H 		0.12102
H 1.0  		0.1694587279954528 		0.3875776717393206  0.4800157003870883 		Uiso   ? 		H 		0.12102
H 1.0  		0.9196212758367759 		0.6375056281125024  0.4800157003870883 		Uiso   ? 		H 		0.12102
H 1.0  		0.9196212758367759 		0.13878575153147144  0.8052624858483285 		Uiso   ? 		H 		0.11945
H 1.0  		0.4195760237295234 		0.6386416642778351  0.8052624858483285 		Uiso   ? 		H 		0.11945
H 1.0  		0.16964806735634155 		0.8887589600119057  0.8052624858483285 		Uiso   ? 		H 		0.11945
H 1.0  		0.669693319463594 		0.38871370790465326  0.8052624858483285 		Uiso   ? 		H 		0.11945
H 1.0  		0.669693319463594 		0.8887589600119057  0.8052624858483285 		Uiso   ? 		H 		0.11945
H 1.0  		0.41957602372952346 		0.13878575153147144  0.8052624858483285 		Uiso   ? 		H 		0.11945
H 1.0  		0.16964806735634158 		0.38871370790465326  0.8052624858483285 		Uiso   ? 		H 		0.11945
H 1.0  		0.9196212758367759 		0.6386416642778351  0.8052624858483285 		Uiso   ? 		H 		0.11945
H 1.0  		0.9442353927523165 		0.056991147627521006  0.19707598855609726 		Uiso   ? 		H 		0.44866
H 1.0  		0.4443794800059528 		0.5570363997347735  0.19707598855609726 		Uiso   ? 		H 		0.44866
H 1.0  		0.1942621842718822 		0.8069643561079551  0.19707598855609726 		Uiso   ? 		H 		0.44866
H 1.0  		0.6943074363791346 		0.30710844336159165  0.19707598855609726 		Uiso   ? 		H 		0.44866
H 1.0  		0.6943074363791346 		0.8069643561079551  0.19707598855609726 		Uiso   ? 		H 		0.44866
H 1.0  		0.44437948000595284 		0.056991147627521006  0.19707598855609726 		Uiso   ? 		H 		0.44866
H 1.0  		0.19426218427188222 		0.30710844336159165  0.19707598855609726 		Uiso   ? 		H 		0.44866
H 1.0  		0.9442353927523165 		0.5570363997347735  0.19707598855609726 		Uiso   ? 		H 		0.44866
H 1.0  		0.9451820895567604 		0.05509775401863326  0.523572350031733 		Uiso   ? 		H 		0.46076
H 1.0  		0.44532617681039666 		0.5549536667649969  0.523572350031733 		Uiso   ? 		H 		0.46076
H 1.0  		0.19520888107632603 		0.8050709624990675  0.523572350031733 		Uiso   ? 		H 		0.46076
H 1.0  		0.6952541331835785 		0.3050257103918151  0.523572350031733 		Uiso   ? 		H 		0.46076
H 1.0  		0.6952541331835785 		0.8050709624990675  0.523572350031733 		Uiso   ? 		H 		0.46076
H 1.0  		0.4453261768103967 		0.05509775401863326  0.523572350031733 		Uiso   ? 		H 		0.46076
H 1.0  		0.19520888107632606 		0.3050257103918151  0.523572350031733 		Uiso   ? 		H 		0.46076
H 1.0  		0.9451820895567604 		0.5549536667649969  0.523572350031733 		Uiso   ? 		H 		0.46076
H 1.0  		0.19767029276788015 		0.30180694125670593  0.8497116897889699 		Uiso   ? 		H 		0.46050
H 1.0  		0.6975262055142438 		0.8018521933639584  0.8497116897889699 		Uiso   ? 		H 		0.46050
H 1.0  		0.447598249141062 		0.05168964552263534  0.8497116897889699 		Uiso   ? 		H 		0.46050
H 1.0  		0.9476435012483144 		0.5517348976298878  0.8497116897889699 		Uiso   ? 		H 		0.46050
H 1.0  		0.9476435012483144 		0.05168964552263534  0.8497116897889699 		Uiso   ? 		H 		0.46050
H 1.0  		0.6975262055142438 		0.30180694125670593  0.8497116897889699 		Uiso   ? 		H 		0.46050
H 1.0  		0.44759824914106194 		0.5517348976298878  0.8497116897889699 		Uiso   ? 		H 		0.46050
H 1.0  		0.19767029276788012 		0.8018521933639584  0.8497116897889699 		Uiso   ? 		H 		0.46050
H 1.0  		0.0710022603332903 		0.08936817833950138  0.32310465515084785 		Uiso   ? 		H 		0.31115
H 1.0  		0.5710475124405427 		0.5894134304467538  0.32310465515084785 		Uiso   ? 		H 		0.31115
H 1.0  		0.3209302167064721 		0.8393413868199356  0.32310465515084785 		Uiso   ? 		H 		0.31115
H 1.0  		0.8209754688137246 		0.339485474073572  0.32310465515084785 		Uiso   ? 		H 		0.31115
H 1.0  		0.8209754688137246 		0.8393413868199356  0.32310465515084785 		Uiso   ? 		H 		0.31115
H 1.0  		0.5710475124405427 		0.08936817833950138  0.32310465515084785 		Uiso   ? 		H 		0.31115
H 1.0  		0.32093021670647215 		0.339485474073572  0.32310465515084785 		Uiso   ? 		H 		0.31115
H 1.0  		0.07100226033329025 		0.5894134304467538  0.32310465515084785 		Uiso   ? 		H 		0.31115
H 1.0  		0.0710022603332903 		0.08936817833950138  0.6479944188936893 		Uiso   ? 		H 		0.31182
H 1.0  		0.5710475124405427 		0.5894134304467538  0.6479944188936893 		Uiso   ? 		H 		0.31182
H 1.0  		0.3209302167064721 		0.8393413868199356  0.6479944188936893 		Uiso   ? 		H 		0.31182
H 1.0  		0.8209754688137246 		0.339485474073572  0.6479944188936893 		Uiso   ? 		H 		0.31182
H 1.0  		0.8209754688137246 		0.8393413868199356  0.6479944188936893 		Uiso   ? 		H 		0.31182
H 1.0  		0.5710475124405427 		0.08936817833950138  0.6479944188936893 		Uiso   ? 		H 		0.31182
H 1.0  		0.32093021670647215 		0.339485474073572  0.6479944188936893 		Uiso   ? 		H 		0.31182
H 1.0  		0.07100226033329025 		0.5894134304467538  0.6479944188936893 		Uiso   ? 		H 		0.31182
H 1.0  		0.060399256123518937 		0.12060917288614911  0.3232831660100472 		Uiso   ? 		H 		0.32553
H 1.0  		0.5604445082307714 		0.6206544249934015  0.3232831660100472 		Uiso   ? 		H 		0.32553
H 1.0  		0.3103272124967007 		0.8705823813665834  0.3232831660100472 		Uiso   ? 		H 		0.32553
H 1.0  		0.8103724646039533 		0.37053712925933097  0.3232831660100472 		Uiso   ? 		H 		0.32553
H 1.0  		0.8103724646039533 		0.8705823813665834  0.3232831660100472 		Uiso   ? 		H 		0.32553
H 1.0  		0.5604445082307714 		0.12060917288614911  0.3232831660100472 		Uiso   ? 		H 		0.32553
H 1.0  		0.31032721249670076 		0.37053712925933097  0.3232831660100472 		Uiso   ? 		H 		0.32553
H 1.0  		0.06039925612351891 		0.6206544249934015  0.3232831660100472 		Uiso   ? 		H 		0.32553
H 1.0  		0.060399256123518937 		0.12060917288614911  0.6479944188936893 		Uiso   ? 		H 		0.32584
H 1.0  		0.5604445082307714 		0.6206544249934015  0.6479944188936893 		Uiso   ? 		H 		0.32584
H 1.0  		0.3103272124967007 		0.8705823813665834  0.6479944188936893 		Uiso   ? 		H 		0.32584
H 1.0  		0.8103724646039533 		0.37053712925933097  0.6479944188936893 		Uiso   ? 		H 		0.32584
H 1.0  		0.8103724646039533 		0.8705823813665834  0.6479944188936893 		Uiso   ? 		H 		0.32584
H 1.0  		0.5604445082307714 		0.12060917288614911  0.6479944188936893 		Uiso   ? 		H 		0.32584
H 1.0  		0.31032721249670076 		0.37053712925933097  0.6479944188936893 		Uiso   ? 		H 		0.32584
H 1.0  		0.06039925612351891 		0.6206544249934015  0.6479944188936893 		Uiso   ? 		H 		0.32584
H 1.0  		0.03767853281686603 		0.3625848761020024  0.3843338798562295 		Uiso   ? 		H 		0.13392
H 1.0  		0.5377237849241184 		0.8626301282092549  0.3843338798562295 		Uiso   ? 		H 		0.13392
H 1.0  		0.28779582855093666 		0.11246758036793182  0.3843338798562295 		Uiso   ? 		H 		0.13392
H 1.0  		0.787841080658189 		0.6125128324751843  0.3843338798562295 		Uiso   ? 		H 		0.13392
H 1.0  		0.787841080658189 		0.11246758036793182  0.3843338798562295 		Uiso   ? 		H 		0.13392
H 1.0  		0.5377237849241184 		0.3625848761020024  0.3843338798562295 		Uiso   ? 		H 		0.13392
H 1.0  		0.2877958285509366 		0.6125128324751843  0.3843338798562295 		Uiso   ? 		H 		0.13392
H 1.0  		0.03767853281686599 		0.8626301282092549  0.3843338798562295 		Uiso   ? 		H 		0.13392
H 1.0  		0.03767853281686603 		0.36220619738022486  0.7086881110214729 		Uiso   ? 		H 		0.13414
H 1.0  		0.5375344455632297 		0.8620621101265885  0.7086881110214729 		Uiso   ? 		H 		0.13414
H 1.0  		0.2876064891900479 		0.11208890164615427  0.7086881110214729 		Uiso   ? 		H 		0.13414
H 1.0  		0.7876517412973003 		0.6121341537534067  0.7086881110214729 		Uiso   ? 		H 		0.13414
H 1.0  		0.7876517412973003 		0.11208890164615427  0.7086881110214729 		Uiso   ? 		H 		0.13414
H 1.0  		0.5375344455632297 		0.36220619738022486  0.7086881110214729 		Uiso   ? 		H 		0.13414
H 1.0  		0.28760648919004783 		0.6121341537534067  0.7086881110214729 		Uiso   ? 		H 		0.13414
H 1.0  		0.03767853281686599 		0.8620621101265885  0.7086881110214729 		Uiso   ? 		H 		0.13414
H 1.0  		0.9586251841798633 		0.13613500047902857  0.262767984741463 		Uiso   ? 		H 		0.11754
H 1.0  		0.4585799320726109 		0.636180252586281  0.262767984741463 		Uiso   ? 		H 		0.11754
H 1.0  		0.20865197569942903 		0.8861082089594629  0.262767984741463 		Uiso   ? 		H 		0.11754
H 1.0  		0.7086972278066814 		0.3862522962130992  0.262767984741463 		Uiso   ? 		H 		0.11754
H 1.0  		0.7086972278066814 		0.8861082089594629  0.262767984741463 		Uiso   ? 		H 		0.11754
H 1.0  		0.45857993207261094 		0.13613500047902857  0.262767984741463 		Uiso   ? 		H 		0.11754
H 1.0  		0.20865197569942906 		0.3862522962130992  0.262767984741463 		Uiso   ? 		H 		0.11754
H 1.0  		0.9586251841798633 		0.636180252586281  0.262767984741463 		Uiso   ? 		H 		0.11754
H 1.0  		0.9586251841798633 		0.1367030185616949  0.5869437050475069 		Uiso   ? 		H 		0.11744
H 1.0  		0.4585799320726109 		0.6367482706689473  0.5869437050475069 		Uiso   ? 		H 		0.11744
H 1.0  		0.20865197569942903 		0.8866762270421291  0.5869437050475069 		Uiso   ? 		H 		0.11744
H 1.0  		0.7086972278066814 		0.3866309749348767  0.5869437050475069 		Uiso   ? 		H 		0.11744
H 1.0  		0.7086972278066814 		0.8866762270421291  0.5869437050475069 		Uiso   ? 		H 		0.11744
H 1.0  		0.45857993207261094 		0.1367030185616949  0.5869437050475069 		Uiso   ? 		H 		0.11744
H 1.0  		0.20865197569942906 		0.3866309749348767  0.5869437050475069 		Uiso   ? 		H 		0.11744
H 1.0  		0.9586251841798633 		0.6367482706689473  0.5869437050475069 		Uiso   ? 		H 		0.11744
H 1.0  		0.12591067499103475 		0.3156287146015865  0.22831538891598582 		Uiso   ? 		H 		0.31238
H 1.0  		0.6259559270982872 		0.8154846273479501  0.22831538891598582 		Uiso   ? 		H 		0.31238
H 1.0  		0.3760279707251054 		0.06551141886751584  0.22831538891598582 		Uiso   ? 		H 		0.31238
H 1.0  		0.8760732228323578 		0.5655566709747682  0.22831538891598582 		Uiso   ? 		H 		0.31238
H 1.0  		0.8760732228323578 		0.06551141886751584  0.22831538891598582 		Uiso   ? 		H 		0.31238
H 1.0  		0.6259559270982872 		0.3156287146015865  0.22831538891598582 		Uiso   ? 		H 		0.31238
H 1.0  		0.37602797072510535 		0.5655566709747682  0.22831538891598582 		Uiso   ? 		H 		0.31238
H 1.0  		0.12591067499103473 		0.8154846273479501  0.22831538891598582 		Uiso   ? 		H 		0.31238
H 1.0  		0.12723605051725617 		0.31525003587980893  0.5528481309404286 		Uiso   ? 		H 		0.31184
H 1.0  		0.6272813026245087 		0.8151059486261725  0.5528481309404286 		Uiso   ? 		H 		0.31184
H 1.0  		0.37716400689043805 		0.06513274014573829  0.5528481309404286 		Uiso   ? 		H 		0.31184
H 1.0  		0.8772092589976904 		0.5651779922529907  0.5528481309404286 		Uiso   ? 		H 		0.31184
H 1.0  		0.8772092589976904 		0.06513274014573829  0.5528481309404286 		Uiso   ? 		H 		0.31184
H 1.0  		0.6272813026245087 		0.31525003587980893  0.5528481309404286 		Uiso   ? 		H 		0.31184
H 1.0  		0.377164006890438 		0.5651779922529907  0.5528481309404286 		Uiso   ? 		H 		0.31184
H 1.0  		0.12723605051725614 		0.8151059486261725  0.5528481309404286 		Uiso   ? 		H 		0.31184
H 1.0  		0.14086848450124792 		0.3006709050913733  0.20421642292407177 		Uiso   ? 		H 		0.32035
H 1.0  		0.6409137366085004 		0.8007161571986258  0.20421642292407177 		Uiso   ? 		H 		0.32035
H 1.0  		0.3907964408744298 		0.05074294871819147  0.20421642292407177 		Uiso   ? 		H 		0.32035
H 1.0  		0.8908416929816823 		0.5507882008254439  0.20421642292407177 		Uiso   ? 		H 		0.32035
H 1.0  		0.8908416929816823 		0.05074294871819147  0.20421642292407177 		Uiso   ? 		H 		0.32035
H 1.0  		0.6409137366085004 		0.3006709050913733  0.20421642292407177 		Uiso   ? 		H 		0.32035
H 1.0  		0.3907964408744297 		0.5507882008254439  0.20421642292407177 		Uiso   ? 		H 		0.32035
H 1.0  		0.1408684845012479 		0.8007161571986258  0.20421642292407177 		Uiso   ? 		H 		0.32035
H 1.0  		0.14086848450124792 		0.3004815657304845  0.5283921432301157 		Uiso   ? 		H 		0.32038
H 1.0  		0.6409137366085004 		0.8005268178377369  0.5283921432301157 		Uiso   ? 		H 		0.32038
H 1.0  		0.3907964408744298 		0.05036426999641392  0.5283921432301157 		Uiso   ? 		H 		0.32038
H 1.0  		0.8908416929816823 		0.5504095221036663  0.5283921432301157 		Uiso   ? 		H 		0.32038
H 1.0  		0.8908416929816823 		0.05036426999641392  0.5283921432301157 		Uiso   ? 		H 		0.32038
H 1.0  		0.6409137366085004 		0.3004815657304845  0.5283921432301157 		Uiso   ? 		H 		0.32038
H 1.0  		0.3907964408744297 		0.5504095221036663  0.5283921432301157 		Uiso   ? 		H 		0.32038
H 1.0  		0.1408684845012479 		0.8005268178377369  0.5283921432301157 		Uiso   ? 		H 		0.32038
H 1.0  		0.14143650258391424 		0.28703847110738157  0.8372159296450147 		Uiso   ? 		H 		0.41399
H 1.0  		0.6412924153302779 		0.787083723214634  0.8372159296450147 		Uiso   ? 		H 		0.41399
H 1.0  		0.39136445895709615 		0.037110514734199726  0.8372159296450147 		Uiso   ? 		H 		0.41399
H 1.0  		0.8914097110643485 		0.5369664274805633  0.8372159296450147 		Uiso   ? 		H 		0.41399
H 1.0  		0.8914097110643485 		0.037110514734199726  0.8372159296450147 		Uiso   ? 		H 		0.41399
H 1.0  		0.6412924153302779 		0.28703847110738157  0.8372159296450147 		Uiso   ? 		H 		0.41399
H 1.0  		0.3913644589570961 		0.5369664274805633  0.8372159296450147 		Uiso   ? 		H 		0.41399
H 1.0  		0.14143650258391421 		0.787083723214634  0.8372159296450147 		Uiso   ? 		H 		0.41399
H 1.0  		0.11587568886392974 		0.2122494235563158  0.26241096302306427 		Uiso   ? 		H 		0.12549
H 1.0  		0.6157316016102934 		0.7122946756635682  0.26241096302306427 		Uiso   ? 		H 		0.12549
H 1.0  		0.3658036452371115 		0.9622226320367501  0.26241096302306427 		Uiso   ? 		H 		0.12549
H 1.0  		0.8658488973443641 		0.4621773799294976  0.26241096302306427 		Uiso   ? 		H 		0.12549
H 1.0  		0.865848897344364 		0.9622226320367501  0.26241096302306427 		Uiso   ? 		H 		0.12549
H 1.0  		0.6157316016102934 		0.2122494235563158  0.26241096302306427 		Uiso   ? 		H 		0.12549
H 1.0  		0.3658036452371115 		0.4621773799294976  0.26241096302306427 		Uiso   ? 		H 		0.12549
H 1.0  		0.11587568886392971 		0.7122946756635682  0.26241096302306427 		Uiso   ? 		H 		0.12549
H 1.0  		0.11492899205948587 		0.21187074483453824  0.5860511507515102 		Uiso   ? 		H 		0.12498
H 1.0  		0.6149742441667384 		0.7119159969417906  0.5860511507515102 		Uiso   ? 		H 		0.12498
H 1.0  		0.3650462877935564 		0.9618439533149725  0.5860511507515102 		Uiso   ? 		H 		0.12498
H 1.0  		0.8650915399008089 		0.4619880405686088  0.5860511507515102 		Uiso   ? 		H 		0.12498
H 1.0  		0.8650915399008088 		0.9618439533149725  0.5860511507515102 		Uiso   ? 		H 		0.12498
H 1.0  		0.6149742441667384 		0.21187074483453824  0.5860511507515102 		Uiso   ? 		H 		0.12498
H 1.0  		0.3650462877935564 		0.4619880405686088  0.5860511507515102 		Uiso   ? 		H 		0.12498
H 1.0  		0.11492899205948584 		0.7119159969417906  0.5860511507515102 		Uiso   ? 		H 		0.12498
H 1.0  		0.9196212758367759 		0.3873883323784318  0.318284861952465 		Uiso   ? 		H 		0.12143
H 1.0  		0.4195760237295234 		0.8874335844856843  0.318284861952465 		Uiso   ? 		H 		0.12143
H 1.0  		0.1696480673563416 		0.13746037600525  0.318284861952465 		Uiso   ? 		H 		0.12143
H 1.0  		0.669693319463594 		0.6375056281125024  0.318284861952465 		Uiso   ? 		H 		0.12143
H 1.0  		0.669693319463594 		0.13746037600525  0.318284861952465 		Uiso   ? 		H 		0.12143
H 1.0  		0.41957602372952346 		0.3873883323784318  0.318284861952465 		Uiso   ? 		H 		0.12143
H 1.0  		0.16964806735634158 		0.6375056281125024  0.318284861952465 		Uiso   ? 		H 		0.12143
H 1.0  		0.9196212758367759 		0.8874335844856843  0.318284861952465 		Uiso   ? 		H 		0.12143
H 1.0  		0.9196212758367759 		0.3875776717393206  0.6410324953849141 		Uiso   ? 		H 		0.12110
H 1.0  		0.4195760237295234 		0.887622923846573  0.6410324953849141 		Uiso   ? 		H 		0.12110
H 1.0  		0.16945872799545283 		0.13764971536613876  0.6410324953849141 		Uiso   ? 		H 		0.12110
H 1.0  		0.6695039801027053 		0.6375056281125024  0.6410324953849141 		Uiso   ? 		H 		0.12110
H 1.0  		0.6695039801027053 		0.13764971536613876  0.6410324953849141 		Uiso   ? 		H 		0.12110
H 1.0  		0.41957602372952346 		0.3875776717393206  0.6410324953849141 		Uiso   ? 		H 		0.12110
H 1.0  		0.1694587279954528 		0.6375056281125024  0.6410324953849141 		Uiso   ? 		H 		0.12110
H 1.0  		0.9196212758367759 		0.887622923846573  0.6410324953849141 		Uiso   ? 		H 		0.12110
H 1.0  		0.9453714289176492 		0.3050257103918151  0.36184151159710976 		Uiso   ? 		H 		0.45910
H 1.0  		0.44532617681039666 		0.8050709624990675  0.36184151159710976 		Uiso   ? 		H 		0.45910
H 1.0  		0.1953982204372149 		0.054908414657744486  0.36184151159710976 		Uiso   ? 		H 		0.45910
H 1.0  		0.6954434725444674 		0.5549536667649969  0.36184151159710976 		Uiso   ? 		H 		0.45910
H 1.0  		0.6954434725444674 		0.054908414657744486  0.36184151159710976 		Uiso   ? 		H 		0.45910
H 1.0  		0.4453261768103967 		0.3050257103918151  0.36184151159710976 		Uiso   ? 		H 		0.45910
H 1.0  		0.19539822043721486 		0.5549536667649969  0.36184151159710976 		Uiso   ? 		H 		0.45910
H 1.0  		0.9453714289176492 		0.8050709624990675  0.36184151159710976 		Uiso   ? 		H 		0.45910
H 1.0  		0.9453714289176492 		0.3050257103918151  0.6851246776071569 		Uiso   ? 		H 		0.45905
H 1.0  		0.44532617681039666 		0.8050709624990675  0.6851246776071569 		Uiso   ? 		H 		0.45905
H 1.0  		0.1953982204372149 		0.054908414657744486  0.6851246776071569 		Uiso   ? 		H 		0.45905
H 1.0  		0.6954434725444674 		0.5549536667649969  0.6851246776071569 		Uiso   ? 		H 		0.45905
H 1.0  		0.6954434725444674 		0.054908414657744486  0.6851246776071569 		Uiso   ? 		H 		0.45905
H 1.0  		0.4453261768103967 		0.3050257103918151  0.6851246776071569 		Uiso   ? 		H 		0.45905
H 1.0  		0.19539822043721486 		0.5549536667649969  0.6851246776071569 		Uiso   ? 		H 		0.45905
H 1.0  		0.9453714289176492 		0.8050709624990675  0.6851246776071569 		Uiso   ? 		H 		0.45905
H 1.0  		0.07251697522040046 		0.3402428315171271  0.16762169678820227 		Uiso   ? 		H 		0.30854
H 1.0  		0.5723728879667642 		0.8402880836243795  0.16762169678820227 		Uiso   ? 		H 		0.30854
H 1.0  		0.32244493159358234 		0.09012553578305647  0.16762169678820227 		Uiso   ? 		H 		0.30854
H 1.0  		0.8224901837008348 		0.5901707878903089  0.16762169678820227 		Uiso   ? 		H 		0.30854
H 1.0  		0.8224901837008348 		0.09012553578305647  0.16762169678820227 		Uiso   ? 		H 		0.30854
H 1.0  		0.5723728879667642 		0.3402428315171271  0.16762169678820227 		Uiso   ? 		H 		0.30854
H 1.0  		0.3224449315935823 		0.5901707878903089  0.16762169678820227 		Uiso   ? 		H 		0.30854
H 1.0  		0.07251697522040043 		0.8402880836243795  0.16762169678820227 		Uiso   ? 		H 		0.30854
H 1.0  		0.07100226033329028 		0.3392961347126832  0.4848354935854712 		Uiso   ? 		H 		0.31194
H 1.0  		0.5710475124405427 		0.8393413868199356  0.4848354935854712 		Uiso   ? 		H 		0.31194
H 1.0  		0.32093021670647215 		0.0891788389786126  0.4848354935854712 		Uiso   ? 		H 		0.31194
H 1.0  		0.8209754688137246 		0.589224091085865  0.4848354935854712 		Uiso   ? 		H 		0.31194
H 1.0  		0.8209754688137246 		0.0891788389786126  0.4848354935854712 		Uiso   ? 		H 		0.31194
H 1.0  		0.5710475124405427 		0.3392961347126832  0.4848354935854712 		Uiso   ? 		H 		0.31194
H 1.0  		0.3209302167064721 		0.589224091085865  0.4848354935854712 		Uiso   ? 		H 		0.31194
H 1.0  		0.07100226033329024 		0.8393413868199356  0.4848354935854712 		Uiso   ? 		H 		0.31194
H 1.0  		0.07251697522040047 		0.3381600985473506  0.8022278012419393 		Uiso   ? 		H 		0.31017
H 1.0  		0.5725622273276529 		0.8382053506546029  0.8022278012419393 		Uiso   ? 		H 		0.31017
H 1.0  		0.32263427095447106 		0.08823214217416875  0.8022278012419393 		Uiso   ? 		H 		0.31017
H 1.0  		0.8224901837008348 		0.5882773942814212  0.8022278012419393 		Uiso   ? 		H 		0.31017
H 1.0  		0.8224901837008348 		0.08823214217416875  0.8022278012419393 		Uiso   ? 		H 		0.31017
H 1.0  		0.5725622273276529 		0.3381600985473506  0.8022278012419393 		Uiso   ? 		H 		0.31017
H 1.0  		0.322634270954471 		0.5882773942814212  0.8022278012419393 		Uiso   ? 		H 		0.31017
H 1.0  		0.07251697522040043 		0.8382053506546029  0.8022278012419393 		Uiso   ? 		H 		0.31017
H 1.0  		0.061913971010629114 		0.37129448670288606  0.16672914249220547 		Uiso   ? 		H 		0.31937
H 1.0  		0.5619592231178816 		0.8713397388101385  0.16672914249220547 		Uiso   ? 		H 		0.31937
H 1.0  		0.3120312667446997 		0.12117719096881543  0.16672914249220547 		Uiso   ? 		H 		0.31937
H 1.0  		0.8120765188519521 		0.6212224430760679  0.16672914249220547 		Uiso   ? 		H 		0.31937
H 1.0  		0.8120765188519521 		0.12117719096881543  0.16672914249220547 		Uiso   ? 		H 		0.31937
H 1.0  		0.5619592231178816 		0.37129448670288606  0.16672914249220547 		Uiso   ? 		H 		0.31937
H 1.0  		0.31203126674469966 		0.6212224430760679  0.16672914249220547 		Uiso   ? 		H 		0.31937
H 1.0  		0.06191397101062908 		0.8713397388101385  0.16672914249220547 		Uiso   ? 		H 		0.31937
H 1.0  		0.06039925612351892 		0.37053712925933097  0.4848354935854712 		Uiso   ? 		H 		0.32460
H 1.0  		0.5604445082307714 		0.8703930420056947  0.4848354935854712 		Uiso   ? 		H 		0.32460
H 1.0  		0.31032721249670076 		0.12041983352526034  0.4848354935854712 		Uiso   ? 		H 		0.32460
H 1.0  		0.8103724646039533 		0.6204650856325128  0.4848354935854712 		Uiso   ? 		H 		0.32460
H 1.0  		0.8103724646039533 		0.12041983352526034  0.4848354935854712 		Uiso   ? 		H 		0.32460
H 1.0  		0.5604445082307714 		0.37053712925933097  0.4848354935854712 		Uiso   ? 		H 		0.32460
H 1.0  		0.3103272124967007 		0.6204650856325128  0.4848354935854712 		Uiso   ? 		H 		0.32460
H 1.0  		0.06039925612351889 		0.8703930420056947  0.4848354935854712 		Uiso   ? 		H 		0.32460
H 1.0  		0.060967274206185244 		0.36883307501133195  0.8040129098339329 		Uiso   ? 		H 		0.31770
H 1.0  		0.560823186952549 		0.8688783271185845  0.8040129098339329 		Uiso   ? 		H 		0.31770
H 1.0  		0.3108952305793671 		0.11890511863815015  0.8040129098339329 		Uiso   ? 		H 		0.31770
H 1.0  		0.8109404826866196 		0.6187610313845138  0.8040129098339329 		Uiso   ? 		H 		0.31770
H 1.0  		0.8109404826866196 		0.11890511863815015  0.8040129098339329 		Uiso   ? 		H 		0.31770
H 1.0  		0.560823186952549 		0.36883307501133195  0.8040129098339329 		Uiso   ? 		H 		0.31770
H 1.0  		0.310895230579367 		0.6187610313845138  0.8040129098339329 		Uiso   ? 		H 		0.31770
H 1.0  		0.06096727420618521 		0.8688783271185845  0.8040129098339329 		Uiso   ? 		H 		0.31770
H 1.0  		0.8637661643745875 		0.29290799129493356  0.42521286661288377 		Uiso   ? 		H 		0.12895
H 1.0  		0.36372091226733505 		0.792953243402186  0.42521286661288377 		Uiso   ? 		H 		0.12895
H 1.0  		0.11379295589415324 		0.042980034921751724  0.42521286661288377 		Uiso   ? 		H 		0.12895
H 1.0  		0.6136488686405169 		0.5430252870290041  0.42521286661288377 		Uiso   ? 		H 		0.12895
H 1.0  		0.6136488686405169 		0.042980034921751724  0.42521286661288377 		Uiso   ? 		H 		0.12895
H 1.0  		0.3637209122673351 		0.29290799129493356  0.42521286661288377 		Uiso   ? 		H 		0.12895
H 1.0  		0.11379295589415321 		0.5430252870290041  0.42521286661288377 		Uiso   ? 		H 		0.12895
H 1.0  		0.8637661643745875 		0.792953243402186  0.42521286661288377 		Uiso   ? 		H 		0.12895
H 1.0  		0.8633874856528099 		0.2910145976860458  0.7495670977781271 		Uiso   ? 		H 		0.12785
H 1.0  		0.3633422335455575 		0.7908705104324094  0.7495670977781271 		Uiso   ? 		H 		0.12785
H 1.0  		0.11322493781148692 		0.04089730195197521  0.7495670977781271 		Uiso   ? 		H 		0.12785
H 1.0  		0.6132701899187394 		0.5409425540592276  0.7495670977781271 		Uiso   ? 		H 		0.12785
H 1.0  		0.6132701899187394 		0.04089730195197521  0.7495670977781271 		Uiso   ? 		H 		0.12785
H 1.0  		0.36334223354555756 		0.2910145976860458  0.7495670977781271 		Uiso   ? 		H 		0.12785
H 1.0  		0.11322493781148689 		0.5409425540592276  0.7495670977781271 		Uiso   ? 		H 		0.12785
H 1.0  		0.8633874856528099 		0.7908705104324094  0.7495670977781271 		Uiso   ? 		H 		0.12785
H 1.0  		0.13746037600525 		0.21357479908253718  0.22296006314000497 		Uiso   ? 		H 		0.12309
H 1.0  		0.6375056281125024 		0.7136200511897897  0.22296006314000497 		Uiso   ? 		H 		0.12309
H 1.0  		0.38757767173932056 		0.9635480075629715  0.22296006314000497 		Uiso   ? 		H 		0.12309
H 1.0  		0.8874335844856843 		0.463502755455719  0.22296006314000497 		Uiso   ? 		H 		0.12309
H 1.0  		0.8874335844856842 		0.9635480075629715  0.22296006314000497 		Uiso   ? 		H 		0.12309
H 1.0  		0.6375056281125024 		0.21357479908253718  0.22296006314000497 		Uiso   ? 		H 		0.12309
H 1.0  		0.38757767173932056 		0.463502755455719  0.22296006314000497 		Uiso   ? 		H 		0.12309
H 1.0  		0.13746037600524993 		0.7136200511897897  0.22296006314000497 		Uiso   ? 		H 		0.12309
H 1.0  		0.1359456611181398 		0.21319612036075963  0.5460647182908528 		Uiso   ? 		H 		0.12382
H 1.0  		0.6359909132253923 		0.7130520331071233  0.5460647182908528 		Uiso   ? 		H 		0.12382
H 1.0  		0.38606295685221037 		0.9631693288411939  0.5460647182908528 		Uiso   ? 		H 		0.12382
H 1.0  		0.8861082089594629 		0.4631240767339415  0.5460647182908528 		Uiso   ? 		H 		0.12382
H 1.0  		0.8861082089594627 		0.9631693288411939  0.5460647182908528 		Uiso   ? 		H 		0.12382
H 1.0  		0.6359909132253923 		0.21319612036075963  0.5460647182908528 		Uiso   ? 		H 		0.12382
H 1.0  		0.38606295685221037 		0.4631240767339415  0.5460647182908528 		Uiso   ? 		H 		0.12382
H 1.0  		0.13594566111813974 		0.7130520331071233  0.5460647182908528 		Uiso   ? 		H 		0.12382
H 1.0  		0.06096727420618526 		0.12912944412614397  0.254913506936691 		Uiso   ? 		H 		0.31725
H 1.0  		0.560823186952549 		0.6291746962333964  0.254913506936691 		Uiso   ? 		H 		0.31725
H 1.0  		0.310895230579367 		0.8791026526065782  0.254913506936691 		Uiso   ? 		H 		0.31725
H 1.0  		0.8109404826866196 		0.37924673986021457  0.254913506936691 		Uiso   ? 		H 		0.31725
H 1.0  		0.8109404826866196 		0.8791026526065782  0.254913506936691 		Uiso   ? 		H 		0.31725
H 1.0  		0.560823186952549 		0.12912944412614397  0.254913506936691 		Uiso   ? 		H 		0.31725
H 1.0  		0.3108952305793671 		0.37924673986021457  0.254913506936691 		Uiso   ? 		H 		0.31725
H 1.0  		0.060967274206185224 		0.6291746962333964  0.254913506936691 		Uiso   ? 		H 		0.31725
H 1.0  		0.060777934845296484 		0.12875076540436642  0.5792677381019344 		Uiso   ? 		H 		0.31649
H 1.0  		0.560823186952549 		0.6287960175116188  0.5792677381019344 		Uiso   ? 		H 		0.31649
H 1.0  		0.31070589121847825 		0.8787239738848006  0.5792677381019344 		Uiso   ? 		H 		0.31649
H 1.0  		0.8107511433257307 		0.37886806113843696  0.5792677381019344 		Uiso   ? 		H 		0.31649
H 1.0  		0.8107511433257307 		0.8787239738848006  0.5792677381019344 		Uiso   ? 		H 		0.31649
H 1.0  		0.560823186952549 		0.12875076540436642  0.5792677381019344 		Uiso   ? 		H 		0.31649
H 1.0  		0.3107058912184783 		0.37886806113843696  0.5792677381019344 		Uiso   ? 		H 		0.31649
H 1.0  		0.06077793484529645 		0.6287960175116188  0.5792677381019344 		Uiso   ? 		H 		0.31649
H 1.0  		0.04657748277863842 		0.14238319938835814  0.28008353808380126 		Uiso   ? 		H 		0.31925
H 1.0  		0.5466227348858909 		0.6424284514956106  0.28008353808380126 		Uiso   ? 		H 		0.31925
H 1.0  		0.2965054391518202 		0.8925457472296813  0.28008353808380126 		Uiso   ? 		H 		0.31925
H 1.0  		0.7965506912590726 		0.39250049512242874  0.28008353808380126 		Uiso   ? 		H 		0.31925
H 1.0  		0.7965506912590726 		0.8925457472296813  0.28008353808380126 		Uiso   ? 		H 		0.31925
H 1.0  		0.5466227348858909 		0.14238319938835814  0.28008353808380126 		Uiso   ? 		H 		0.31925
H 1.0  		0.29650543915182026 		0.39250049512242874  0.28008353808380126 		Uiso   ? 		H 		0.31925
H 1.0  		0.046577482778638386 		0.6424284514956106  0.28008353808380126 		Uiso   ? 		H 		0.31925
H 1.0  		0.04657748277863842 		0.14219386002746937  0.6044377692490447 		Uiso   ? 		H 		0.31960
H 1.0  		0.5466227348858909 		0.6422391121347217  0.6044377692490447 		Uiso   ? 		H 		0.31960
H 1.0  		0.2965054391518202 		0.8921670685079036  0.6044377692490447 		Uiso   ? 		H 		0.31960
H 1.0  		0.7965506912590726 		0.39212181640065125  0.6044377692490447 		Uiso   ? 		H 		0.31960
H 1.0  		0.7965506912590726 		0.8921670685079036  0.6044377692490447 		Uiso   ? 		H 		0.31960
H 1.0  		0.5466227348858909 		0.14219386002746937  0.6044377692490447 		Uiso   ? 		H 		0.31960
H 1.0  		0.29650543915182026 		0.39212181640065125  0.6044377692490447 		Uiso   ? 		H 		0.31960
H 1.0  		0.046577482778638386 		0.6422391121347217  0.6044377692490447 		Uiso   ? 		H 		0.31960
H 1.0  		0.9576784873754194 		0.11492899205948588  0.22296006314000497 		Uiso   ? 		H 		0.11653
H 1.0  		0.45763323526816696 		0.6147849048058496  0.22296006314000497 		Uiso   ? 		H 		0.11653
H 1.0  		0.20770527889498513 		0.8649022005399201  0.22296006314000497 		Uiso   ? 		H 		0.11653
H 1.0  		0.7077505310022376 		0.36485694843266775  0.22296006314000497 		Uiso   ? 		H 		0.11653
H 1.0  		0.7077505310022376 		0.8649022005399201  0.22296006314000497 		Uiso   ? 		H 		0.11653
H 1.0  		0.457633235268167 		0.11492899205948588  0.22296006314000497 		Uiso   ? 		H 		0.11653
H 1.0  		0.20770527889498516 		0.36485694843266775  0.22296006314000497 		Uiso   ? 		H 		0.11653
H 1.0  		0.9576784873754194 		0.6147849048058496  0.22296006314000497 		Uiso   ? 		H 		0.11653
H 1.0  		0.9574891480145308 		0.11568634950304098  0.547135783446049 		Uiso   ? 		H 		0.11854
H 1.0  		0.4574438959072782 		0.6157316016102934  0.547135783446049 		Uiso   ? 		H 		0.11854
H 1.0  		0.2075159395340964 		0.8656595579834753  0.547135783446049 		Uiso   ? 		H 		0.11854
H 1.0  		0.7073718522804602 		0.36561430587622284  0.547135783446049 		Uiso   ? 		H 		0.11854
H 1.0  		0.7073718522804602 		0.8656595579834753  0.547135783446049 		Uiso   ? 		H 		0.11854
H 1.0  		0.45744389590727824 		0.11568634950304098  0.547135783446049 		Uiso   ? 		H 		0.11854
H 1.0  		0.20751593953409642 		0.36561430587622284  0.547135783446049 		Uiso   ? 		H 		0.11854
H 1.0  		0.9574891480145308 		0.6157316016102934  0.547135783446049 		Uiso   ? 		H 		0.11854
H 1.0  		0.8866762270421291 		0.16945872799545283  0.1606597732794271 		Uiso   ? 		H 		0.11539
H 1.0  		0.38682031429576547 		0.6695039801027053  0.1606597732794271 		Uiso   ? 		H 		0.11539
H 1.0  		0.13670301856169484 		0.9194319364758871  0.1606597732794271 		Uiso   ? 		H 		0.11539
H 1.0  		0.6367482706689473 		0.41957602372952346  0.1606597732794271 		Uiso   ? 		H 		0.11539
H 1.0  		0.6367482706689472 		0.9194319364758871  0.1606597732794271 		Uiso   ? 		H 		0.11539
H 1.0  		0.3868203142957655 		0.16945872799545283  0.1606597732794271 		Uiso   ? 		H 		0.11539
H 1.0  		0.13670301856169487 		0.41957602372952346  0.1606597732794271 		Uiso   ? 		H 		0.11539
H 1.0  		0.8866762270421291 		0.6695039801027053  0.1606597732794271 		Uiso   ? 		H 		0.11539
H 1.0  		0.8847828334332415 		0.16945872799545283  0.48019421124628764 		Uiso   ? 		H 		0.12196
H 1.0  		0.3849269206868777 		0.6695039801027053  0.48019421124628764 		Uiso   ? 		H 		0.12196
H 1.0  		0.1348096249528071 		0.9194319364758871  0.48019421124628764 		Uiso   ? 		H 		0.12196
H 1.0  		0.6348548770600596 		0.41957602372952346  0.48019421124628764 		Uiso   ? 		H 		0.12196
H 1.0  		0.6348548770600595 		0.9194319364758871  0.48019421124628764 		Uiso   ? 		H 		0.12196
H 1.0  		0.3849269206868778 		0.16945872799545283  0.48019421124628764 		Uiso   ? 		H 		0.12196
H 1.0  		0.13480962495280713 		0.41957602372952346  0.48019421124628764 		Uiso   ? 		H 		0.12196
H 1.0  		0.8847828334332415 		0.6695039801027053  0.48019421124628764 		Uiso   ? 		H 		0.12196
H 1.0  		0.8842148153505751 		0.16983740671723038  0.8049054641299298 		Uiso   ? 		H 		0.11624
H 1.0  		0.38416956324332263 		0.6698826588244827  0.8049054641299298 		Uiso   ? 		H 		0.11624
H 1.0  		0.13424160687014078 		0.9198106151976646  0.8049054641299298 		Uiso   ? 		H 		0.11624
H 1.0  		0.6340975196165045 		0.41995470245130095  0.8049054641299298 		Uiso   ? 		H 		0.11624
H 1.0  		0.6340975196165044 		0.9198106151976646  0.8049054641299298 		Uiso   ? 		H 		0.11624
H 1.0  		0.3841695632433227 		0.16983740671723038  0.8049054641299298 		Uiso   ? 		H 		0.11624
H 1.0  		0.1342416068701408 		0.41995470245130095  0.8049054641299298 		Uiso   ? 		H 		0.11624
H 1.0  		0.8842148153505751 		0.6698826588244827  0.8049054641299298 		Uiso   ? 		H 		0.11624
H 1.0  		0.9203786332803309 		0.36409959098911265  0.16726467506980355 		Uiso   ? 		H 		0.11535
H 1.0  		0.4205227205339673 		0.8641448430963651  0.16726467506980355 		Uiso   ? 		H 		0.11535
H 1.0  		0.1704054247998967 		0.11417163461593079  0.16726467506980355 		Uiso   ? 		H 		0.11535
H 1.0  		0.6704506769071491 		0.6142168867231833  0.16726467506980355 		Uiso   ? 		H 		0.11535
H 1.0  		0.6704506769071491 		0.11417163461593079  0.16726467506980355 		Uiso   ? 		H 		0.11535
H 1.0  		0.42052272053396733 		0.36409959098911265  0.16726467506980355 		Uiso   ? 		H 		0.11535
H 1.0  		0.17040542479989668 		0.6142168867231833  0.16726467506980355 		Uiso   ? 		H 		0.11535
H 1.0  		0.9203786332803309 		0.8641448430963651  0.16726467506980355 		Uiso   ? 		H 		0.11535
H 1.0  		0.9196212758367759 		0.3646676090717789  0.4900123085022527 		Uiso   ? 		H 		0.12317
H 1.0  		0.4195760237295234 		0.8647128611790315  0.4900123085022527 		Uiso   ? 		H 		0.12317
H 1.0  		0.1696480673563416 		0.11473965269859711  0.4900123085022527 		Uiso   ? 		H 		0.12317
H 1.0  		0.669693319463594 		0.6147849048058496  0.4900123085022527 		Uiso   ? 		H 		0.12317
H 1.0  		0.669693319463594 		0.11473965269859711  0.4900123085022527 		Uiso   ? 		H 		0.12317
H 1.0  		0.41957602372952346 		0.3646676090717789  0.4900123085022527 		Uiso   ? 		H 		0.12317
H 1.0  		0.16964806735634158 		0.6147849048058496  0.4900123085022527 		Uiso   ? 		H 		0.12317
H 1.0  		0.9196212758367759 		0.8647128611790315  0.4900123085022527 		Uiso   ? 		H 		0.12317
H 1.0  		0.9199999545585534 		0.36731836012422175  0.8090112138915151 		Uiso   ? 		H 		0.12491
H 1.0  		0.4201440418121897 		0.8671742728705855  0.8090112138915151 		Uiso   ? 		H 		0.12491
H 1.0  		0.17002674607811916 		0.11720106439015117  0.8090112138915151 		Uiso   ? 		H 		0.12491
H 1.0  		0.6700719981853717 		0.6172463164974036  0.8090112138915151 		Uiso   ? 		H 		0.12491
H 1.0  		0.6700719981853717 		0.11720106439015117  0.8090112138915151 		Uiso   ? 		H 		0.12491
H 1.0  		0.42014404181218973 		0.36731836012422175  0.8090112138915151 		Uiso   ? 		H 		0.12491
H 1.0  		0.17002674607811913 		0.6172463164974036  0.8090112138915151 		Uiso   ? 		H 		0.12491
H 1.0  		0.9199999545585534 		0.8671742728705855  0.8090112138915151 		Uiso   ? 		H 		0.12491
H 1.0  		0.11189956228526549 		0.29290799129493356  0.26241096302306427 		Uiso   ? 		H 		0.12686
H 1.0  		0.611944814392518 		0.792953243402186  0.26241096302306427 		Uiso   ? 		H 		0.12686
H 1.0  		0.3620168580193361 		0.042980034921751724  0.26241096302306427 		Uiso   ? 		H 		0.12686
H 1.0  		0.8618727707656997 		0.5430252870290041  0.26241096302306427 		Uiso   ? 		H 		0.12686
H 1.0  		0.8618727707656997 		0.042980034921751724  0.26241096302306427 		Uiso   ? 		H 		0.12686
H 1.0  		0.611944814392518 		0.29290799129493356  0.26241096302306427 		Uiso   ? 		H 		0.12686
H 1.0  		0.36201685801933603 		0.5430252870290041  0.26241096302306427 		Uiso   ? 		H 		0.12686
H 1.0  		0.11189956228526546 		0.792953243402186  0.26241096302306427 		Uiso   ? 		H 		0.12686
H 1.0  		0.11360361653326445 		0.2927186519340448  0.5869437050475069 		Uiso   ? 		H 		0.13053
H 1.0  		0.6134595292796282 		0.7925745646804084  0.5869437050475069 		Uiso   ? 		H 		0.13053
H 1.0  		0.3635315729064463 		0.042601356199974176  0.5869437050475069 		Uiso   ? 		H 		0.13053
H 1.0  		0.8635768250136987 		0.5426466083072267  0.5869437050475069 		Uiso   ? 		H 		0.13053
H 1.0  		0.8635768250136987 		0.042601356199974176  0.5869437050475069 		Uiso   ? 		H 		0.13053
H 1.0  		0.6134595292796282 		0.2927186519340448  0.5869437050475069 		Uiso   ? 		H 		0.13053
H 1.0  		0.3635315729064462 		0.5426466083072267  0.5869437050475069 		Uiso   ? 		H 		0.13053
H 1.0  		0.11360361653326442 		0.7925745646804084  0.5869437050475069 		Uiso   ? 		H 		0.13053
H 1.0  		0.8861082089594629 		0.21319612036075963  0.3843338798562295 		Uiso   ? 		H 		0.12353
H 1.0  		0.38606295685221037 		0.7132413724680121  0.3843338798562295 		Uiso   ? 		H 		0.12353
H 1.0  		0.13613500047902852 		0.9633586682020827  0.3843338798562295 		Uiso   ? 		H 		0.12353
H 1.0  		0.6359909132253923 		0.4633134160948303  0.3843338798562295 		Uiso   ? 		H 		0.12353
H 1.0  		0.6359909132253921 		0.9633586682020827  0.3843338798562295 		Uiso   ? 		H 		0.12353
H 1.0  		0.3860629568522104 		0.21319612036075963  0.3843338798562295 		Uiso   ? 		H 		0.12353
H 1.0  		0.13613500047902855 		0.4633134160948303  0.3843338798562295 		Uiso   ? 		H 		0.12353
H 1.0  		0.8861082089594629 		0.7132413724680121  0.3843338798562295 		Uiso   ? 		H 		0.12353
H 1.0  		0.8855401908767965 		0.21243876291720457  0.7070815132886786 		Uiso   ? 		H 		0.12416
H 1.0  		0.38549493876954405 		0.712484015024457  0.7070815132886786 		Uiso   ? 		H 		0.12416
H 1.0  		0.1355669823963622 		0.9624119713976389  0.7070815132886786 		Uiso   ? 		H 		0.12416
H 1.0  		0.6356122345036147 		0.4625560586512752  0.7070815132886786 		Uiso   ? 		H 		0.12416
H 1.0  		0.6356122345036146 		0.9624119713976389  0.7070815132886786 		Uiso   ? 		H 		0.12416
H 1.0  		0.3854949387695441 		0.21243876291720457  0.7070815132886786 		Uiso   ? 		H 		0.12416
H 1.0  		0.13556698239636222 		0.4625560586512752  0.7070815132886786 		Uiso   ? 		H 		0.12416
H 1.0  		0.8855401908767965 		0.712484015024457  0.7070815132886786 		Uiso   ? 		H 		0.12416
H 1.0  		0.0605885954844077 		0.37924673986021457  0.41628732365291554 		Uiso   ? 		H 		0.31745
H 1.0  		0.5606338475916601 		0.879291991967467  0.41628732365291554 		Uiso   ? 		H 		0.31745
H 1.0  		0.3107058912184783 		0.12931878348703274  0.41628732365291554 		Uiso   ? 		H 		0.31745
H 1.0  		0.8105618039648419 		0.6293640355942851  0.41628732365291554 		Uiso   ? 		H 		0.31745
H 1.0  		0.8105618039648419 		0.12931878348703274  0.41628732365291554 		Uiso   ? 		H 		0.31745
H 1.0  		0.5606338475916601 		0.37924673986021457  0.41628732365291554 		Uiso   ? 		H 		0.31745
H 1.0  		0.31070589121847825 		0.6293640355942851  0.41628732365291554 		Uiso   ? 		H 		0.31745
H 1.0  		0.06058859548440766 		0.879291991967467  0.41628732365291554 		Uiso   ? 		H 		0.31745
H 1.0  		0.06039925612351892 		0.3817081515517686  0.7395704896629627 		Uiso   ? 		H 		0.31346
H 1.0  		0.5604445082307714 		0.8817534036590211  0.7395704896629627 		Uiso   ? 		H 		0.31346
H 1.0  		0.31032721249670076 		0.13178019517858677  0.7395704896629627 		Uiso   ? 		H 		0.31346
H 1.0  		0.8103724646039533 		0.6316361079249504  0.7395704896629627 		Uiso   ? 		H 		0.31346
H 1.0  		0.8103724646039533 		0.13178019517858677  0.7395704896629627 		Uiso   ? 		H 		0.31346
H 1.0  		0.5604445082307714 		0.3817081515517686  0.7395704896629627 		Uiso   ? 		H 		0.31346
H 1.0  		0.3103272124967007 		0.6316361079249504  0.7395704896629627 		Uiso   ? 		H 		0.31346
H 1.0  		0.06039925612351889 		0.8817534036590211  0.7395704896629627 		Uiso   ? 		H 		0.31346
H 1.0  		0.03635315729064461 		0.39098578023531855  0.1328120792443264 		Uiso   ? 		H 		0.41664
H 1.0  		0.5362090700370082 		0.8910310323425711  0.1328120792443264 		Uiso   ? 		H 		0.41664
H 1.0  		0.28628111366382647 		0.14105782386213672  0.1328120792443264 		Uiso   ? 		H 		0.41664
H 1.0  		0.7863263657710788 		0.6411030759693892  0.1328120792443264 		Uiso   ? 		H 		0.41664
H 1.0  		0.7863263657710788 		0.14105782386213672  0.1328120792443264 		Uiso   ? 		H 		0.41664
H 1.0  		0.5362090700370082 		0.39098578023531855  0.1328120792443264 		Uiso   ? 		H 		0.41664
H 1.0  		0.2862811136638264 		0.6411030759693892  0.1328120792443264 		Uiso   ? 		H 		0.41664
H 1.0  		0.036353157290644575 		0.8910310323425711  0.1328120792443264 		Uiso   ? 		H 		0.41664
H 1.0  		0.04657748277863841 		0.39250049512242874  0.4414573548000258 		Uiso   ? 		H 		0.31964
H 1.0  		0.5466227348858909 		0.8925457472296813  0.4414573548000258 		Uiso   ? 		H 		0.31964
H 1.0  		0.29650543915182026 		0.1425725387492469  0.4414573548000258 		Uiso   ? 		H 		0.31964
H 1.0  		0.7965506912590726 		0.6426177908564994  0.4414573548000258 		Uiso   ? 		H 		0.31964
H 1.0  		0.7965506912590726 		0.1425725387492469  0.4414573548000258 		Uiso   ? 		H 		0.31964
H 1.0  		0.5466227348858909 		0.39250049512242874  0.4414573548000258 		Uiso   ? 		H 		0.31964
H 1.0  		0.2965054391518202 		0.6426177908564994  0.4414573548000258 		Uiso   ? 		H 		0.31964
H 1.0  		0.04657748277863837 		0.8925457472296813  0.4414573548000258 		Uiso   ? 		H 		0.31964
H 1.0  		0.04638814341774963 		0.39439388873131653  0.7647405208100729 		Uiso   ? 		H 		0.32092
H 1.0  		0.5462440561641133 		0.8944391408385689  0.7647405208100729 		Uiso   ? 		H 		0.32092
H 1.0  		0.2963160997909315 		0.14446593235813465  0.7647405208100729 		Uiso   ? 		H 		0.32092
H 1.0  		0.796361351898184 		0.644511184465387  0.7647405208100729 		Uiso   ? 		H 		0.32092
H 1.0  		0.796361351898184 		0.14446593235813465  0.7647405208100729 		Uiso   ? 		H 		0.32092
H 1.0  		0.5462440561641133 		0.39439388873131653  0.7647405208100729 		Uiso   ? 		H 		0.32092
H 1.0  		0.29631609979093143 		0.644511184465387  0.7647405208100729 		Uiso   ? 		H 		0.32092
H 1.0  		0.0463881434177496 		0.8944391408385689  0.7647405208100729 		Uiso   ? 		H 		0.32092
H 1.0  		0.9569211299318644 		0.365424966515334  0.38504792329302695 		Uiso   ? 		H 		0.11922
H 1.0  		0.45687587782461186 		0.8654702186225864  0.38504792329302695 		Uiso   ? 		H 		0.11922
H 1.0  		0.2069479214514301 		0.1154970101421522  0.38504792329302695 		Uiso   ? 		H 		0.11922
H 1.0  		0.7068038341977938 		0.6155422622494047  0.38504792329302695 		Uiso   ? 		H 		0.11922
H 1.0  		0.7068038341977938 		0.1154970101421522  0.38504792329302695 		Uiso   ? 		H 		0.11922
H 1.0  		0.4568758778246119 		0.365424966515334  0.38504792329302695 		Uiso   ? 		H 		0.11922
H 1.0  		0.20694792145143007 		0.6155422622494047  0.38504792329302695 		Uiso   ? 		H 		0.11922
H 1.0  		0.9569211299318644 		0.8654702186225864  0.38504792329302695 		Uiso   ? 		H 		0.11922
H 1.0  		0.9569211299318644 		0.36409959098911265  0.7101161978950679 		Uiso   ? 		H 		0.11639
H 1.0  		0.45687587782461186 		0.8641448430963651  0.7101161978950679 		Uiso   ? 		H 		0.11639
H 1.0  		0.2069479214514301 		0.11417163461593079  0.7101161978950679 		Uiso   ? 		H 		0.11639
H 1.0  		0.7068038341977938 		0.6142168867231833  0.7101161978950679 		Uiso   ? 		H 		0.11639
H 1.0  		0.7068038341977938 		0.11417163461593079  0.7101161978950679 		Uiso   ? 		H 		0.11639
H 1.0  		0.4568758778246119 		0.36409959098911265  0.7101161978950679 		Uiso   ? 		H 		0.11639
H 1.0  		0.20694792145143007 		0.6142168867231833  0.7101161978950679 		Uiso   ? 		H 		0.11639
H 1.0  		0.9569211299318644 		0.8641448430963651  0.7101161978950679 		Uiso   ? 		H 		0.11639
H 1.0  		0.13480962495280716 		0.1696480673563416  0.3186418836708637 		Uiso   ? 		H 		0.12206
H 1.0  		0.6348548770600596 		0.669693319463594  0.3186418836708637 		Uiso   ? 		H 		0.12206
H 1.0  		0.38473758132598895 		0.9196212758367759  0.3186418836708637 		Uiso   ? 		H 		0.12206
H 1.0  		0.8847828334332415 		0.41957602372952346  0.3186418836708637 		Uiso   ? 		H 		0.12206
H 1.0  		0.8847828334332414 		0.9196212758367759  0.3186418836708637 		Uiso   ? 		H 		0.12206
H 1.0  		0.6348548770600596 		0.1696480673563416  0.3186418836708637 		Uiso   ? 		H 		0.12206
H 1.0  		0.384737581325989 		0.41957602372952346  0.3186418836708637 		Uiso   ? 		H 		0.12206
H 1.0  		0.13480962495280713 		0.669693319463594  0.3186418836708637 		Uiso   ? 		H 		0.12206
H 1.0  		0.13462028559191838 		0.16945872799545283  0.6413895171033128 		Uiso   ? 		H 		0.12213
H 1.0  		0.6346655376991708 		0.6695039801027053  0.6413895171033128 		Uiso   ? 		H 		0.12213
H 1.0  		0.38473758132598895 		0.9194319364758871  0.6413895171033128 		Uiso   ? 		H 		0.12213
H 1.0  		0.8845934940723525 		0.41957602372952346  0.6413895171033128 		Uiso   ? 		H 		0.12213
H 1.0  		0.8845934940723524 		0.9194319364758871  0.6413895171033128 		Uiso   ? 		H 		0.12213
H 1.0  		0.6346655376991708 		0.16945872799545283  0.6413895171033128 		Uiso   ? 		H 		0.12213
H 1.0  		0.384737581325989 		0.41957602372952346  0.6413895171033128 		Uiso   ? 		H 		0.12213
H 1.0  		0.13462028559191835 		0.6695039801027053  0.6413895171033128 		Uiso   ? 		H 		0.12213
H 1.0  		0.9196212758367759 		0.11492899205948588  0.3288170026452275 		Uiso   ? 		H 		0.12323
H 1.0  		0.4195760237295234 		0.6147849048058496  0.3288170026452275 		Uiso   ? 		H 		0.12323
H 1.0  		0.16964806735634155 		0.8649022005399201  0.3288170026452275 		Uiso   ? 		H 		0.12323
H 1.0  		0.669693319463594 		0.36485694843266775  0.3288170026452275 		Uiso   ? 		H 		0.12323
H 1.0  		0.669693319463594 		0.8649022005399201  0.3288170026452275 		Uiso   ? 		H 		0.12323
H 1.0  		0.41957602372952346 		0.11492899205948588  0.3288170026452275 		Uiso   ? 		H 		0.12323
H 1.0  		0.16964806735634158 		0.36485694843266775  0.3288170026452275 		Uiso   ? 		H 		0.12323
H 1.0  		0.9196212758367759 		0.6147849048058496  0.3288170026452275 		Uiso   ? 		H 		0.12323
H 1.0  		0.9196212758367759 		0.11473965269859711  0.6531712338104708 		Uiso   ? 		H 		0.12313
H 1.0  		0.4195760237295234 		0.6147849048058496  0.6531712338104708 		Uiso   ? 		H 		0.12313
H 1.0  		0.16945872799545278 		0.8647128611790315  0.6531712338104708 		Uiso   ? 		H 		0.12313
H 1.0  		0.6695039801027053 		0.3646676090717789  0.6531712338104708 		Uiso   ? 		H 		0.12313
H 1.0  		0.6695039801027053 		0.8647128611790315  0.6531712338104708 		Uiso   ? 		H 		0.12313
H 1.0  		0.41957602372952346 		0.11473965269859711  0.6531712338104708 		Uiso   ? 		H 		0.12313
H 1.0  		0.1694587279954528 		0.3646676090717789  0.6531712338104708 		Uiso   ? 		H 		0.12313
H 1.0  		0.9196212758367759 		0.6147849048058496  0.6531712338104708 		Uiso   ? 		H 		0.12313
H 1.0  		0.05509775401863324 		0.3052150497527039  0.28650992901497835 		Uiso   ? 		H 		0.45670
H 1.0  		0.5551430061258857 		0.8052603018599563  0.28650992901497835 		Uiso   ? 		H 		0.45670
H 1.0  		0.3052150497527039 		0.055287093379522034  0.28650992901497835 		Uiso   ? 		H 		0.45670
H 1.0  		0.8050709624990675 		0.5553323454867745  0.28650992901497835 		Uiso   ? 		H 		0.45670
H 1.0  		0.8050709624990675 		0.055287093379522034  0.28650992901497835 		Uiso   ? 		H 		0.45670
H 1.0  		0.5551430061258857 		0.3052150497527039  0.28650992901497835 		Uiso   ? 		H 		0.45670
H 1.0  		0.30521504975270386 		0.5553323454867745  0.28650992901497835 		Uiso   ? 		H 		0.45670
H 1.0  		0.05509775401863321 		0.8052603018599563  0.28650992901497835 		Uiso   ? 		H 		0.45670
H 1.0  		0.055476432740410794 		0.3052150497527039  0.610507138461823 		Uiso   ? 		H 		0.45796
H 1.0  		0.5553323454867745 		0.8052603018599563  0.610507138461823 		Uiso   ? 		H 		0.45796
H 1.0  		0.30540438911359263 		0.055287093379522034  0.610507138461823 		Uiso   ? 		H 		0.45796
H 1.0  		0.805449641220845 		0.5553323454867745  0.610507138461823 		Uiso   ? 		H 		0.45796
H 1.0  		0.805449641220845 		0.055287093379522034  0.610507138461823 		Uiso   ? 		H 		0.45796
H 1.0  		0.5553323454867745 		0.3052150497527039  0.610507138461823 		Uiso   ? 		H 		0.45796
H 1.0  		0.3054043891135926 		0.5553323454867745  0.610507138461823 		Uiso   ? 		H 		0.45796
H 1.0  		0.05547643274041077 		0.8052603018599563  0.610507138461823 		Uiso   ? 		H 		0.45796
H 1.0  		0.13651367920080612 		0.2071372608123189  0.4253913774720831 		Uiso   ? 		H 		0.12772
H 1.0  		0.6363695919471698 		0.7071825129195712  0.4253913774720831 		Uiso   ? 		H 		0.12772
H 1.0  		0.3864416355739879 		0.9571104692927531  0.4253913774720831 		Uiso   ? 		H 		0.12772
H 1.0  		0.8864868876812405 		0.45706521718550075  0.4253913774720831 		Uiso   ? 		H 		0.12772
H 1.0  		0.8864868876812404 		0.9571104692927531  0.4253913774720831 		Uiso   ? 		H 		0.12772
H 1.0  		0.6363695919471698 		0.2071372608123189  0.4253913774720831 		Uiso   ? 		H 		0.12772
H 1.0  		0.3864416355739879 		0.45706521718550075  0.4253913774720831 		Uiso   ? 		H 		0.12772
H 1.0  		0.13651367920080607 		0.7071825129195712  0.4253913774720831 		Uiso   ? 		H 		0.12772
H 1.0  		0.13727103664436122 		0.20959867250387293  0.7504596520741239 		Uiso   ? 		H 		0.12467
H 1.0  		0.6373162887516137 		0.7096439246111255  0.7504596520741239 		Uiso   ? 		H 		0.12467
H 1.0  		0.38738833237843173 		0.9595718809843071  0.7504596520741239 		Uiso   ? 		H 		0.12467
H 1.0  		0.8874335844856843 		0.45971596823794353  0.7504596520741239 		Uiso   ? 		H 		0.12467
H 1.0  		0.8874335844856842 		0.9595718809843071  0.7504596520741239 		Uiso   ? 		H 		0.12467
H 1.0  		0.6373162887516137 		0.20959867250387293  0.7504596520741239 		Uiso   ? 		H 		0.12467
H 1.0  		0.38738833237843173 		0.45971596823794353  0.7504596520741239 		Uiso   ? 		H 		0.12467
H 1.0  		0.13727103664436116 		0.7096439246111255  0.7504596520741239 		Uiso   ? 		H 		0.12467
H 1.0  		0.8633874856528099 		0.28628111366382647  0.22296006314000497 		Uiso   ? 		H 		0.12392
H 1.0  		0.3635315729064462 		0.7863263657710788  0.22296006314000497 		Uiso   ? 		H 		0.12392
H 1.0  		0.11341427717237569 		0.036163817929755857  0.22296006314000497 		Uiso   ? 		H 		0.12392
H 1.0  		0.6134595292796282 		0.5362090700370082  0.22296006314000497 		Uiso   ? 		H 		0.12392
H 1.0  		0.6134595292796282 		0.036163817929755857  0.22296006314000497 		Uiso   ? 		H 		0.12392
H 1.0  		0.3635315729064463 		0.28628111366382647  0.22296006314000497 		Uiso   ? 		H 		0.12392
H 1.0  		0.11341427717237566 		0.5362090700370082  0.22296006314000497 		Uiso   ? 		H 		0.12392
H 1.0  		0.8633874856528099 		0.7863263657710788  0.22296006314000497 		Uiso   ? 		H 		0.12392
H 1.0  		0.8649022005399201 		0.286659792385604  0.5455291857132547 		Uiso   ? 		H 		0.12651
H 1.0  		0.3648569484326677 		0.7867050444928565  0.5455291857132547 		Uiso   ? 		H 		0.12651
H 1.0  		0.11492899205948588 		0.03673183601242218  0.5455291857132547 		Uiso   ? 		H 		0.12651
H 1.0  		0.6149742441667384 		0.5365877487587859  0.5455291857132547 		Uiso   ? 		H 		0.12651
H 1.0  		0.6149742441667384 		0.03673183601242218  0.5455291857132547 		Uiso   ? 		H 		0.12651
H 1.0  		0.36485694843266775 		0.286659792385604  0.5455291857132547 		Uiso   ? 		H 		0.12651
H 1.0  		0.11492899205948585 		0.5365877487587859  0.5455291857132547 		Uiso   ? 		H 		0.12651
H 1.0  		0.8649022005399201 		0.7867050444928565  0.5455291857132547 		Uiso   ? 		H 		0.12651
H 1.0  		0.9395019087300971 		0.3754599526424391  0.25723414810628276 		Uiso   ? 		H 		0.31577
H 1.0  		0.4394566566228447 		0.8753158653888028  0.25723414810628276 		Uiso   ? 		H 		0.31577
H 1.0  		0.18952870024966287 		0.12534265690836846  0.25723414810628276 		Uiso   ? 		H 		0.31577
H 1.0  		0.6895739523569153 		0.6253879090156209  0.25723414810628276 		Uiso   ? 		H 		0.31577
H 1.0  		0.6895739523569153 		0.12534265690836846  0.25723414810628276 		Uiso   ? 		H 		0.31577
H 1.0  		0.4394566566228448 		0.3754599526424391  0.25723414810628276 		Uiso   ? 		H 		0.31577
H 1.0  		0.18952870024966284 		0.6253879090156209  0.25723414810628276 		Uiso   ? 		H 		0.31577
H 1.0  		0.9395019087300971 		0.8753158653888028  0.25723414810628276 		Uiso   ? 		H 		0.31577
H 1.0  		0.9395019087300971 		0.3754599526424391  0.5812313575531274 		Uiso   ? 		H 		0.31638
H 1.0  		0.4394566566228447 		0.8753158653888028  0.5812313575531274 		Uiso   ? 		H 		0.31638
H 1.0  		0.18952870024966287 		0.12534265690836846  0.5812313575531274 		Uiso   ? 		H 		0.31638
H 1.0  		0.6895739523569153 		0.6253879090156209  0.5812313575531274 		Uiso   ? 		H 		0.31638
H 1.0  		0.6895739523569153 		0.12534265690836846  0.5812313575531274 		Uiso   ? 		H 		0.31638
H 1.0  		0.4394566566228448 		0.3754599526424391  0.5812313575531274 		Uiso   ? 		H 		0.31638
H 1.0  		0.18952870024966284 		0.6253879090156209  0.5812313575531274 		Uiso   ? 		H 		0.31638
H 1.0  		0.9395019087300971 		0.8753158653888028  0.5812313575531274 		Uiso   ? 		H 		0.31638
H 1.0  		0.9535130214358664 		0.3610701612148922  0.28186864667579486 		Uiso   ? 		H 		0.32289
H 1.0  		0.45346776932861393 		0.8611154133221447  0.28186864667579486 		Uiso   ? 		H 		0.32289
H 1.0  		0.20353981295543216 		0.1111422048417104  0.28186864667579486 		Uiso   ? 		H 		0.32289
H 1.0  		0.7035850650626846 		0.610998117588074  0.28186864667579486 		Uiso   ? 		H 		0.32289
H 1.0  		0.7035850650626846 		0.1111422048417104  0.28186864667579486 		Uiso   ? 		H 		0.32289
H 1.0  		0.453467769328614 		0.3610701612148922  0.28186864667579486 		Uiso   ? 		H 		0.32289
H 1.0  		0.20353981295543214 		0.610998117588074  0.28186864667579486 		Uiso   ? 		H 		0.32289
H 1.0  		0.9535130214358664 		0.8611154133221447  0.28186864667579486 		Uiso   ? 		H 		0.32289
H 1.0  		0.9535130214358664 		0.3610701612148922  0.606044366981839 		Uiso   ? 		H 		0.32478
H 1.0  		0.45346776932861393 		0.8611154133221447  0.606044366981839 		Uiso   ? 		H 		0.32478
H 1.0  		0.20353981295543216 		0.1111422048417104  0.606044366981839 		Uiso   ? 		H 		0.32478
H 1.0  		0.7035850650626846 		0.610998117588074  0.606044366981839 		Uiso   ? 		H 		0.32478
H 1.0  		0.7035850650626846 		0.1111422048417104  0.606044366981839 		Uiso   ? 		H 		0.32478
H 1.0  		0.453467769328614 		0.3610701612148922  0.606044366981839 		Uiso   ? 		H 		0.32478
H 1.0  		0.20353981295543214 		0.610998117588074  0.606044366981839 		Uiso   ? 		H 		0.32478
H 1.0  		0.9535130214358664 		0.8611154133221447  0.606044366981839 		Uiso   ? 		H 		0.32478
H 1.0  		0.04279069556086293 		0.384737581325989  0.22349559571760302 		Uiso   ? 		H 		0.11467
H 1.0  		0.5428359476681154 		0.8847828334332415  0.22349559571760302 		Uiso   ? 		H 		0.11467
H 1.0  		0.29290799129493356 		0.13480962495280716  0.22349559571760302 		Uiso   ? 		H 		0.11467
H 1.0  		0.7927639040412973 		0.6348548770600596  0.22349559571760302 		Uiso   ? 		H 		0.11467
H 1.0  		0.7927639040412973 		0.13480962495280716  0.22349559571760302 		Uiso   ? 		H 		0.11467
H 1.0  		0.5428359476681154 		0.384737581325989  0.22349559571760302 		Uiso   ? 		H 		0.11467
H 1.0  		0.2929079912949335 		0.6348548770600596  0.22349559571760302 		Uiso   ? 		H 		0.11467
H 1.0  		0.042790695560862894 		0.8847828334332415  0.22349559571760302 		Uiso   ? 		H 		0.11467
H 1.0  		0.04241201683908538 		0.3828441877171012  0.5462432291500522 		Uiso   ? 		H 		0.11519
H 1.0  		0.5424572689463378 		0.8827001004634649  0.5462432291500522 		Uiso   ? 		H 		0.11519
H 1.0  		0.292529312573156 		0.13272689198303064  0.5462432291500522 		Uiso   ? 		H 		0.11519
H 1.0  		0.7923852253195196 		0.6327721440902832  0.5462432291500522 		Uiso   ? 		H 		0.11519
H 1.0  		0.7923852253195196 		0.13272689198303064  0.5462432291500522 		Uiso   ? 		H 		0.11519
H 1.0  		0.5424572689463378 		0.3828441877171012  0.5462432291500522 		Uiso   ? 		H 		0.11519
H 1.0  		0.29252931257315595 		0.6327721440902832  0.5462432291500522 		Uiso   ? 		H 		0.11519
H 1.0  		0.04241201683908535 		0.8827001004634649  0.5462432291500522 		Uiso   ? 		H 		0.11519
H 1.0  		0.11511833142037464 		0.32888246986380065  0.162087860153022 		Uiso   ? 		H 		0.12101
H 1.0  		0.6151635835276271 		0.8287383826101643  0.162087860153022 		Uiso   ? 		H 		0.12101
H 1.0  		0.36504628779355647 		0.07876517412973003  0.162087860153022 		Uiso   ? 		H 		0.12101
H 1.0  		0.8650915399008089 		0.5788104262369824  0.162087860153022 		Uiso   ? 		H 		0.12101
H 1.0  		0.8650915399008089 		0.07876517412973003  0.162087860153022 		Uiso   ? 		H 		0.12101
H 1.0  		0.6151635835276271 		0.32888246986380065  0.162087860153022 		Uiso   ? 		H 		0.12101
H 1.0  		0.3650462877935564 		0.5788104262369824  0.162087860153022 		Uiso   ? 		H 		0.12101
H 1.0  		0.1151183314203746 		0.8287383826101643  0.162087860153022 		Uiso   ? 		H 		0.12101
H 1.0  		0.11455031333770832 		0.3286931305029119  0.4848354935854712 		Uiso   ? 		H 		0.12891
H 1.0  		0.614406226084072 		0.8287383826101643  0.4848354935854712 		Uiso   ? 		H 		0.12891
H 1.0  		0.3644782697108902 		0.07876517412973003  0.4848354935854712 		Uiso   ? 		H 		0.12891
H 1.0  		0.8645235218181425 		0.5786210868760937  0.4848354935854712 		Uiso   ? 		H 		0.12891
H 1.0  		0.8645235218181425 		0.07876517412973003  0.4848354935854712 		Uiso   ? 		H 		0.12891
H 1.0  		0.614406226084072 		0.3286931305029119  0.4848354935854712 		Uiso   ? 		H 		0.12891
H 1.0  		0.36447826971089015 		0.5786210868760937  0.4848354935854712 		Uiso   ? 		H 		0.12891
H 1.0  		0.11455031333770828 		0.8287383826101643  0.4848354935854712 		Uiso   ? 		H 		0.12891
H 1.0  		0.11587568886392974 		0.3285037911420231  0.8065120618627241 		Uiso   ? 		H 		0.12526
H 1.0  		0.6157316016102934 		0.8283597038883868  0.8065120618627241 		Uiso   ? 		H 		0.12526
H 1.0  		0.36580364523711156 		0.07838649540795248  0.8065120618627241 		Uiso   ? 		H 		0.12526
H 1.0  		0.8658488973443641 		0.578431747515205  0.8065120618627241 		Uiso   ? 		H 		0.12526
H 1.0  		0.8658488973443641 		0.07838649540795248  0.8065120618627241 		Uiso   ? 		H 		0.12526
H 1.0  		0.6157316016102934 		0.3285037911420231  0.8065120618627241 		Uiso   ? 		H 		0.12526
H 1.0  		0.3658036452371115 		0.578431747515205  0.8065120618627241 		Uiso   ? 		H 		0.12526
H 1.0  		0.1158756888639297 		0.8283597038883868  0.8065120618627241 		Uiso   ? 		H 		0.12526
H 1.0  		0.07971187093417388 		0.13556698239636225  0.16280190358981947 		Uiso   ? 		H 		0.13241
H 1.0  		0.5795677836805375 		0.6356122345036147  0.16280190358981947 		Uiso   ? 		H 		0.13241
H 1.0  		0.3296398273073557 		0.8855401908767965  0.16280190358981947 		Uiso   ? 		H 		0.13241
H 1.0  		0.8296850794146081 		0.3856842781304329  0.16280190358981947 		Uiso   ? 		H 		0.13241
H 1.0  		0.8296850794146081 		0.8855401908767965  0.16280190358981947 		Uiso   ? 		H 		0.13241
H 1.0  		0.5795677836805375 		0.13556698239636225  0.16280190358981947 		Uiso   ? 		H 		0.13241
H 1.0  		0.32963982730735575 		0.3856842781304329  0.16280190358981947 		Uiso   ? 		H 		0.13241
H 1.0  		0.07971187093417385 		0.6356122345036147  0.16280190358981947 		Uiso   ? 		H 		0.13241
H 1.0  		0.07876517412973001 		0.1351883036745847  0.48608506959986664 		Uiso   ? 		H 		0.13198
H 1.0  		0.5788104262369824 		0.6352335557818372  0.48608506959986664 		Uiso   ? 		H 		0.13198
H 1.0  		0.3286931305029118 		0.8851615121550189  0.48608506959986664 		Uiso   ? 		H 		0.13198
H 1.0  		0.8287383826101643 		0.38530559940865533  0.48608506959986664 		Uiso   ? 		H 		0.13198
H 1.0  		0.8287383826101643 		0.8851615121550189  0.48608506959986664 		Uiso   ? 		H 		0.13198
H 1.0  		0.5788104262369824 		0.1351883036745847  0.48608506959986664 		Uiso   ? 		H 		0.13198
H 1.0  		0.3286931305029119 		0.38530559940865533  0.48608506959986664 		Uiso   ? 		H 		0.13198
H 1.0  		0.07876517412972998 		0.6352335557818372  0.48608506959986664 		Uiso   ? 		H 		0.13198
H 1.0  		0.07838649540795246 		0.13348424942658574  0.8102607899059107 		Uiso   ? 		H 		0.13497
H 1.0  		0.5782424081543162 		0.6335295015338382  0.8102607899059107 		Uiso   ? 		H 		0.13497
H 1.0  		0.3283144517811343 		0.8834574579070201  0.8102607899059107 		Uiso   ? 		H 		0.13497
H 1.0  		0.8283597038883868 		0.38341220579976754  0.8102607899059107 		Uiso   ? 		H 		0.13497
H 1.0  		0.8283597038883868 		0.8834574579070201  0.8102607899059107 		Uiso   ? 		H 		0.13497
H 1.0  		0.5782424081543162 		0.13348424942658574  0.8102607899059107 		Uiso   ? 		H 		0.13497
H 1.0  		0.32831445178113433 		0.38341220579976754  0.8102607899059107 		Uiso   ? 		H 		0.13497
H 1.0  		0.07838649540795244 		0.6335295015338382  0.8102607899059107 		Uiso   ? 		H 		0.13497
H 1.0  		0.9629799894803052 		0.4621773799294976  0.13120548151153213 		Uiso   ? 		H 		0.44836
H 1.0  		0.46312407673394146 		0.9622226320367501  0.13120548151153213 		Uiso   ? 		H 		0.44836
H 1.0  		0.2130067809998709 		0.2122494235563158  0.13120548151153213 		Uiso   ? 		H 		0.44836
H 1.0  		0.7130520331071233 		0.7121053363026795  0.13120548151153213 		Uiso   ? 		H 		0.44836
H 1.0  		0.7130520331071233 		0.2122494235563158  0.13120548151153213 		Uiso   ? 		H 		0.44836
H 1.0  		0.46312407673394146 		0.4621773799294976  0.13120548151153213 		Uiso   ? 		H 		0.44836
H 1.0  		0.21300678099987083 		0.7121053363026795  0.13120548151153213 		Uiso   ? 		H 		0.44836
H 1.0  		0.962979989480305 		0.9622226320367501  0.13120548151153213 		Uiso   ? 		H 		0.44836
H 1.0  		0.19426218427188224 		0.194451523632771  0.44841927830880096 		Uiso   ? 		H 		0.45872
H 1.0  		0.6943074363791346 		0.6944967757400234  0.44841927830880096 		Uiso   ? 		H 		0.45872
H 1.0  		0.444190140645064 		0.944614071474094  0.44841927830880096 		Uiso   ? 		H 		0.45872
H 1.0  		0.9442353927523165 		0.4445688193668416  0.44841927830880096 		Uiso   ? 		H 		0.45872
H 1.0  		0.9442353927523164 		0.944614071474094  0.44841927830880096 		Uiso   ? 		H 		0.45872
H 1.0  		0.6943074363791346 		0.194451523632771  0.44841927830880096 		Uiso   ? 		H 		0.45872
H 1.0  		0.44419014064506407 		0.4445688193668416  0.44841927830880096 		Uiso   ? 		H 		0.45872
H 1.0  		0.1942621842718822 		0.6944967757400234  0.44841927830880096 		Uiso   ? 		H 		0.45872
H 1.0  		0.1921794513021057 		0.19767029276788017  0.7717024443188483 		Uiso   ? 		H 		0.45041
H 1.0  		0.6920353640484693 		0.6977155448751327  0.7717024443188483 		Uiso   ? 		H 		0.45041
H 1.0  		0.4421074076752875 		0.9478328406092033  0.7717024443188483 		Uiso   ? 		H 		0.45041
H 1.0  		0.94215265978254 		0.44778758850195083  0.7717024443188483 		Uiso   ? 		H 		0.45041
H 1.0  		0.9421526597825399 		0.9478328406092033  0.7717024443188483 		Uiso   ? 		H 		0.45041
H 1.0  		0.6920353640484693 		0.19767029276788017  0.7717024443188483 		Uiso   ? 		H 		0.45041
H 1.0  		0.44210740767528756 		0.44778758850195083  0.7717024443188483 		Uiso   ? 		H 		0.45041
H 1.0  		0.19217945130210565 		0.6977155448751327  0.7717024443188483 		Uiso   ? 		H 		0.45041
H 1.0  		0.8885696206510169 		0.2063799033687638  0.2620539413046655 		Uiso   ? 		H 		0.12674
H 1.0  		0.38852436854376443 		0.7064251554760161  0.2620539413046655 		Uiso   ? 		H 		0.12674
H 1.0  		0.1385964121705826 		0.9565424512100867  0.2620539413046655 		Uiso   ? 		H 		0.12674
H 1.0  		0.6386416642778351 		0.4564971991028344  0.2620539413046655 		Uiso   ? 		H 		0.12674
H 1.0  		0.638641664277835 		0.9565424512100867  0.2620539413046655 		Uiso   ? 		H 		0.12674
H 1.0  		0.3885243685437645 		0.2063799033687638  0.2620539413046655 		Uiso   ? 		H 		0.12674
H 1.0  		0.13859641217058263 		0.4564971991028344  0.2620539413046655 		Uiso   ? 		H 		0.12674
H 1.0  		0.8885696206510169 		0.7064251554760161  0.2620539413046655 		Uiso   ? 		H 		0.12674
H 1.0  		0.8864868876812405 		0.2069479214514301  0.5867651941883076 		Uiso   ? 		H 		0.12740
H 1.0  		0.3864416355739879 		0.7069931735586825  0.5867651941883076 		Uiso   ? 		H 		0.12740
H 1.0  		0.13651367920080607 		0.9569211299318644  0.5867651941883076 		Uiso   ? 		H 		0.12740
H 1.0  		0.6365589313080586 		0.45706521718550075  0.5867651941883076 		Uiso   ? 		H 		0.12740
H 1.0  		0.6365589313080585 		0.9569211299318644  0.5867651941883076 		Uiso   ? 		H 		0.12740
H 1.0  		0.386441635573988 		0.2069479214514301  0.5867651941883076 		Uiso   ? 		H 		0.12740
H 1.0  		0.1365136792008061 		0.45706521718550075  0.5867651941883076 		Uiso   ? 		H 		0.12740
H 1.0  		0.8864868876812405 		0.7069931735586825  0.5867651941883076 		Uiso   ? 		H 		0.12740
H 1.0  		0.11492899205948587 		0.28684913174649274  0.3839768581378307 		Uiso   ? 		H 		0.12667
H 1.0  		0.6147849048058496 		0.7867050444928565  0.3839768581378307 		Uiso   ? 		H 		0.12667
H 1.0  		0.36485694843266775 		0.03673183601242218  0.3839768581378307 		Uiso   ? 		H 		0.12667
H 1.0  		0.8649022005399201 		0.5367770881196746  0.3839768581378307 		Uiso   ? 		H 		0.12667
H 1.0  		0.8649022005399201 		0.03673183601242218  0.3839768581378307 		Uiso   ? 		H 		0.12667
H 1.0  		0.6147849048058496 		0.28684913174649274  0.3839768581378307 		Uiso   ? 		H 		0.12667
H 1.0  		0.3648569484326677 		0.5367770881196746  0.3839768581378307 		Uiso   ? 		H 		0.12667
H 1.0  		0.11492899205948584 		0.7867050444928565  0.3839768581378307 		Uiso   ? 		H 		0.12667
H 1.0  		0.113982295255042 		0.2876064891900479  0.707260024147878 		Uiso   ? 		H 		0.12538
H 1.0  		0.6140275473622945 		0.7876517412973003  0.707260024147878 		Uiso   ? 		H 		0.12538
H 1.0  		0.36409959098911265 		0.037489193455977274  0.707260024147878 		Uiso   ? 		H 		0.12538
H 1.0  		0.8641448430963651 		0.5375344455632297  0.707260024147878 		Uiso   ? 		H 		0.12538
H 1.0  		0.8641448430963651 		0.037489193455977274  0.707260024147878 		Uiso   ? 		H 		0.12538
H 1.0  		0.6140275473622945 		0.2876064891900479  0.707260024147878 		Uiso   ? 		H 		0.12538
H 1.0  		0.3640995909891126 		0.5375344455632297  0.707260024147878 		Uiso   ? 		H 		0.12538
H 1.0  		0.11398229525504197 		0.7876517412973003  0.707260024147878 		Uiso   ? 		H 		0.12538
H 1.0  		0.9396912480909859 		0.1251533175474797  0.4184294539633079 		Uiso   ? 		H 		0.31922
H 1.0  		0.43964599598373344 		0.6251985696547321  0.4184294539633079 		Uiso   ? 		H 		0.31922
H 1.0  		0.1895287002496628 		0.875126526027914  0.4184294539633079 		Uiso   ? 		H 		0.31922
H 1.0  		0.6895739523569153 		0.3752706132815503  0.4184294539633079 		Uiso   ? 		H 		0.31922
H 1.0  		0.6895739523569153 		0.875126526027914  0.4184294539633079 		Uiso   ? 		H 		0.31922
H 1.0  		0.4396459959837335 		0.1251533175474797  0.4184294539633079 		Uiso   ? 		H 		0.31922
H 1.0  		0.18952870024966284 		0.3752706132815503  0.4184294539633079 		Uiso   ? 		H 		0.31922
H 1.0  		0.9396912480909859 		0.6251985696547321  0.4184294539633079 		Uiso   ? 		H 		0.31922
H 1.0  		0.9398805874518747 		0.12269190585592563  0.7431407068469501 		Uiso   ? 		H 		0.31396
H 1.0  		0.4398353353446222 		0.6227371579631781  0.7431407068469501 		Uiso   ? 		H 		0.31396
H 1.0  		0.18990737897144036 		0.8728544536972487  0.7431407068469501 		Uiso   ? 		H 		0.31396
H 1.0  		0.6899526310786929 		0.37280920158999625  0.7431407068469501 		Uiso   ? 		H 		0.31396
H 1.0  		0.6899526310786929 		0.8728544536972487  0.7431407068469501 		Uiso   ? 		H 		0.31396
H 1.0  		0.43983533534462227 		0.12269190585592563  0.7431407068469501 		Uiso   ? 		H 		0.31396
H 1.0  		0.1899073789714404 		0.37280920158999625  0.7431407068469501 		Uiso   ? 		H 		0.31396
H 1.0  		0.9398805874518747 		0.6227371579631781  0.7431407068469501 		Uiso   ? 		H 		0.31396
H 1.0  		0.9533236820749776 		0.11076352611993286  0.4434209742512188 		Uiso   ? 		H 		0.32405
H 1.0  		0.45346776932861393 		0.6108087782271853  0.4434209742512188 		Uiso   ? 		H 		0.32405
H 1.0  		0.20335047359454336 		0.8609260739612559  0.4434209742512188 		Uiso   ? 		H 		0.32405
H 1.0  		0.7033957257017958 		0.36088082185400344  0.4434209742512188 		Uiso   ? 		H 		0.32405
H 1.0  		0.7033957257017958 		0.8609260739612559  0.4434209742512188 		Uiso   ? 		H 		0.32405
H 1.0  		0.453467769328614 		0.11076352611993286  0.4434209742512188 		Uiso   ? 		H 		0.32405
H 1.0  		0.2033504735945434 		0.36088082185400344  0.4434209742512188 		Uiso   ? 		H 		0.32405
H 1.0  		0.9533236820749776 		0.6108087782271853  0.4434209742512188 		Uiso   ? 		H 		0.32405
H 1.0  		0.954649057601199 		0.1096274899546002  0.7681322271348608 		Uiso   ? 		H 		0.32462
H 1.0  		0.4546038054939466 		0.6096727420618527  0.7681322271348608 		Uiso   ? 		H 		0.32462
H 1.0  		0.20467584912076475 		0.8596006984350345  0.7681322271348608 		Uiso   ? 		H 		0.32462
H 1.0  		0.7045317618671285 		0.359555446327782  0.7681322271348608 		Uiso   ? 		H 		0.32462
H 1.0  		0.7045317618671285 		0.8596006984350345  0.7681322271348608 		Uiso   ? 		H 		0.32462
H 1.0  		0.45460380549394663 		0.1096274899546002  0.7681322271348608 		Uiso   ? 		H 		0.32462
H 1.0  		0.20467584912076478 		0.359555446327782  0.7681322271348608 		Uiso   ? 		H 		0.32462
H 1.0  		0.954649057601199 		0.6096727420618527  0.7681322271348608 		Uiso   ? 		H 		0.32462
H 1.0  		0.04279069556086294 		0.13272689198303064  0.3843338798562295 		Uiso   ? 		H 		0.11815
H 1.0  		0.5428359476681154 		0.6327721440902832  0.3843338798562295 		Uiso   ? 		H 		0.11815
H 1.0  		0.2929079912949335 		0.8828894398243538  0.3843338798562295 		Uiso   ? 		H 		0.11815
H 1.0  		0.7927639040412973 		0.3828441877171012  0.3843338798562295 		Uiso   ? 		H 		0.11815
H 1.0  		0.7927639040412973 		0.8828894398243538  0.3843338798562295 		Uiso   ? 		H 		0.11815
H 1.0  		0.5428359476681154 		0.13272689198303064  0.3843338798562295 		Uiso   ? 		H 		0.11815
H 1.0  		0.29290799129493356 		0.3828441877171012  0.3843338798562295 		Uiso   ? 		H 		0.11815
H 1.0  		0.04279069556086291 		0.6327721440902832  0.3843338798562295 		Uiso   ? 		H 		0.11815
H 1.0  		0.04279069556086294 		0.13272689198303064  0.7085096001622735 		Uiso   ? 		H 		0.11644
H 1.0  		0.5428359476681154 		0.6327721440902832  0.7085096001622735 		Uiso   ? 		H 		0.11644
H 1.0  		0.2929079912949335 		0.8828894398243538  0.7085096001622735 		Uiso   ? 		H 		0.11644
H 1.0  		0.7927639040412973 		0.3828441877171012  0.7085096001622735 		Uiso   ? 		H 		0.11644
H 1.0  		0.7927639040412973 		0.8828894398243538  0.7085096001622735 		Uiso   ? 		H 		0.11644
H 1.0  		0.5428359476681154 		0.13272689198303064  0.7085096001622735 		Uiso   ? 		H 		0.11644
H 1.0  		0.29290799129493356 		0.3828441877171012  0.7085096001622735 		Uiso   ? 		H 		0.11644
H 1.0  		0.04279069556086291 		0.6327721440902832  0.7085096001622735 		Uiso   ? 		H 		0.11644
H 1.0  		0.8643341824572539 		0.3286931305029119  0.32292614429164845 		Uiso   ? 		H 		0.12722
H 1.0  		0.3642889303500013 		0.8287383826101643  0.32292614429164845 		Uiso   ? 		H 		0.12722
H 1.0  		0.11436097397681956 		0.07876517412973003  0.32292614429164845 		Uiso   ? 		H 		0.12722
H 1.0  		0.614406226084072 		0.5786210868760937  0.32292614429164845 		Uiso   ? 		H 		0.12722
H 1.0  		0.614406226084072 		0.07876517412973003  0.32292614429164845 		Uiso   ? 		H 		0.12722
H 1.0  		0.36428893035000137 		0.3286931305029119  0.32292614429164845 		Uiso   ? 		H 		0.12722
H 1.0  		0.11436097397681952 		0.5786210868760937  0.32292614429164845 		Uiso   ? 		H 		0.12722
H 1.0  		0.8643341824572539 		0.8287383826101643  0.32292614429164845 		Uiso   ? 		H 		0.12722
H 1.0  		0.8643341824572539 		0.3286931305029119  0.6471018645976925 		Uiso   ? 		H 		0.12810
H 1.0  		0.3642889303500013 		0.8287383826101643  0.6471018645976925 		Uiso   ? 		H 		0.12810
H 1.0  		0.11436097397681956 		0.07876517412973003  0.6471018645976925 		Uiso   ? 		H 		0.12810
H 1.0  		0.614406226084072 		0.5786210868760937  0.6471018645976925 		Uiso   ? 		H 		0.12810
H 1.0  		0.614406226084072 		0.07876517412973003  0.6471018645976925 		Uiso   ? 		H 		0.12810
H 1.0  		0.36428893035000137 		0.3286931305029119  0.6471018645976925 		Uiso   ? 		H 		0.12810
H 1.0  		0.11436097397681952 		0.5786210868760937  0.6471018645976925 		Uiso   ? 		H 		0.12810
H 1.0  		0.8643341824572539 		0.8287383826101643  0.6471018645976925 		Uiso   ? 		H 		0.12810
H 1.0  		0.07876517412973 		0.3854949387695441  0.3247112528836421 		Uiso   ? 		H 		0.13081
H 1.0  		0.5788104262369824 		0.8855401908767965  0.3247112528836421 		Uiso   ? 		H 		0.13081
H 1.0  		0.3286931305029119 		0.13556698239636225  0.3247112528836421 		Uiso   ? 		H 		0.13081
H 1.0  		0.8287383826101643 		0.6356122345036147  0.3247112528836421 		Uiso   ? 		H 		0.13081
H 1.0  		0.8287383826101643 		0.13556698239636225  0.3247112528836421 		Uiso   ? 		H 		0.13081
H 1.0  		0.5788104262369824 		0.3854949387695441  0.3247112528836421 		Uiso   ? 		H 		0.13081
H 1.0  		0.3286931305029118 		0.6356122345036147  0.3247112528836421 		Uiso   ? 		H 		0.13081
H 1.0  		0.07876517412972997 		0.8855401908767965  0.3247112528836421 		Uiso   ? 		H 		0.13081
H 1.0  		0.07876517412973 		0.3851162600477665  0.6488869731896861 		Uiso   ? 		H 		0.13154
H 1.0  		0.5788104262369824 		0.8849721727941303  0.6488869731896861 		Uiso   ? 		H 		0.13154
H 1.0  		0.3286931305029119 		0.13499896431369593  0.6488869731896861 		Uiso   ? 		H 		0.13154
H 1.0  		0.8287383826101643 		0.6350442164209484  0.6488869731896861 		Uiso   ? 		H 		0.13154
H 1.0  		0.8287383826101643 		0.13499896431369593  0.6488869731896861 		Uiso   ? 		H 		0.13154
H 1.0  		0.5788104262369824 		0.3851162600477665  0.6488869731896861 		Uiso   ? 		H 		0.13154
H 1.0  		0.3286931305029118 		0.6350442164209484  0.6488869731896861 		Uiso   ? 		H 		0.13154
H 1.0  		0.07876517412972997 		0.8849721727941303  0.6488869731896861 		Uiso   ? 		H 		0.13154
H 1.0  		0.9442353927523165 		0.194451523632771  0.28686695073337704 		Uiso   ? 		H 		0.45903
H 1.0  		0.444190140645064 		0.6944967757400234  0.28686695073337704 		Uiso   ? 		H 		0.45903
H 1.0  		0.1942621842718822 		0.944614071474094  0.28686695073337704 		Uiso   ? 		H 		0.45903
H 1.0  		0.6941180970182459 		0.4445688193668416  0.28686695073337704 		Uiso   ? 		H 		0.45903
H 1.0  		0.6941180970182458 		0.944614071474094  0.28686695073337704 		Uiso   ? 		H 		0.45903
H 1.0  		0.44419014064506407 		0.194451523632771  0.28686695073337704 		Uiso   ? 		H 		0.45903
H 1.0  		0.19426218427188222 		0.4445688193668416  0.28686695073337704 		Uiso   ? 		H 		0.45903
H 1.0  		0.9442353927523165 		0.6944967757400234  0.28686695073337704 		Uiso   ? 		H 		0.45903
H 1.0  		0.944614071474094 		0.194451523632771  0.6103286276026236 		Uiso   ? 		H 		0.45599
H 1.0  		0.44456881936684156 		0.6943074363791346  0.6103286276026236 		Uiso   ? 		H 		0.45599
H 1.0  		0.19464086299365974 		0.9444247321132053  0.6103286276026236 		Uiso   ? 		H 		0.45599
H 1.0  		0.6944967757400234 		0.44437948000595284  0.6103286276026236 		Uiso   ? 		H 		0.45599
H 1.0  		0.6944967757400233 		0.9444247321132053  0.6103286276026236 		Uiso   ? 		H 		0.45599
H 1.0  		0.4445688193668416 		0.194451523632771  0.6103286276026236 		Uiso   ? 		H 		0.45599
H 1.0  		0.19464086299365976 		0.44437948000595284  0.6103286276026236 		Uiso   ? 		H 		0.45599
H 1.0  		0.944614071474094 		0.6943074363791346  0.6103286276026236 		Uiso   ? 		H 		0.45599
H 1.0  		0.8393413868199356 		0.17892569603989153  0.3248897637428415 		Uiso   ? 		H 		0.30945
H 1.0  		0.33929613471268316 		0.6787816087862552  0.3248897637428415 		Uiso   ? 		H 		0.30945
H 1.0  		0.08936817833950132 		0.9288989045203258  0.3248897637428415 		Uiso   ? 		H 		0.30945
H 1.0  		0.5894134304467538 		0.4288536524130734  0.3248897637428415 		Uiso   ? 		H 		0.30945
H 1.0  		0.5894134304467537 		0.9288989045203258  0.3248897637428415 		Uiso   ? 		H 		0.30945
H 1.0  		0.3392961347126832 		0.17892569603989153  0.3248897637428415 		Uiso   ? 		H 		0.30945
H 1.0  		0.08936817833950135 		0.4288536524130734  0.3248897637428415 		Uiso   ? 		H 		0.30945
H 1.0  		0.8393413868199356 		0.6787816087862552  0.3248897637428415 		Uiso   ? 		H 		0.30945
H 1.0  		0.8393413868199356 		0.17854701731811398  0.6490654840488855 		Uiso   ? 		H 		0.31056
H 1.0  		0.33929613471268316 		0.6785922694253664  0.6490654840488855 		Uiso   ? 		H 		0.31056
H 1.0  		0.08936817833950132 		0.9285202257985482  0.6490654840488855 		Uiso   ? 		H 		0.31056
H 1.0  		0.5894134304467538 		0.42866431305218455  0.6490654840488855 		Uiso   ? 		H 		0.31056
H 1.0  		0.5894134304467537 		0.9285202257985482  0.6490654840488855 		Uiso   ? 		H 		0.31056
H 1.0  		0.3392961347126832 		0.17854701731811398  0.6490654840488855 		Uiso   ? 		H 		0.31056
H 1.0  		0.08936817833950135 		0.42866431305218455  0.6490654840488855 		Uiso   ? 		H 		0.31056
H 1.0  		0.8393413868199356 		0.6785922694253664  0.6490654840488855 		Uiso   ? 		H 		0.31056
H 1.0  		0.8705823813665834 		0.18952870024966287  0.3252467854612402 		Uiso   ? 		H 		0.32748
H 1.0  		0.37072646862021963 		0.6895739523569153  0.3252467854612402 		Uiso   ? 		H 		0.32748
H 1.0  		0.12060917288614906 		0.9395019087300971  0.3252467854612402 		Uiso   ? 		H 		0.32748
H 1.0  		0.6206544249934015 		0.4396459959837335  0.3252467854612402 		Uiso   ? 		H 		0.32748
H 1.0  		0.6206544249934014 		0.9395019087300971  0.3252467854612402 		Uiso   ? 		H 		0.32748
H 1.0  		0.3707264686202197 		0.18952870024966287  0.3252467854612402 		Uiso   ? 		H 		0.32748
H 1.0  		0.12060917288614909 		0.4396459959837335  0.3252467854612402 		Uiso   ? 		H 		0.32748
H 1.0  		0.8705823813665834 		0.6895739523569153  0.3252467854612402 		Uiso   ? 		H 		0.32748
H 1.0  		0.8705823813665834 		0.18915002152788535  0.6492439949080848 		Uiso   ? 		H 		0.32827
H 1.0  		0.3705371292593309 		0.6891952736351378  0.6492439949080848 		Uiso   ? 		H 		0.32827
H 1.0  		0.12060917288614906 		0.9391232300083195  0.6492439949080848 		Uiso   ? 		H 		0.32827
H 1.0  		0.6204650856325128 		0.4392673172619559  0.6492439949080848 		Uiso   ? 		H 		0.32827
H 1.0  		0.6204650856325127 		0.9391232300083195  0.6492439949080848 		Uiso   ? 		H 		0.32827
H 1.0  		0.37053712925933097 		0.18915002152788535  0.6492439949080848 		Uiso   ? 		H 		0.32827
H 1.0  		0.12060917288614909 		0.4392673172619559  0.6492439949080848 		Uiso   ? 		H 		0.32827
H 1.0  		0.8705823813665834 		0.6891952736351378  0.6492439949080848 		Uiso   ? 		H 		0.32827
H 1.0  		0.14238319938835814 		0.2177402650220902  0.8429282771393942 		Uiso   ? 		H 		0.41662
H 1.0  		0.6422391121347217 		0.7177855171293427  0.8429282771393942 		Uiso   ? 		H 		0.41662
H 1.0  		0.3923111557615399 		0.9679028128634133  0.8429282771393942 		Uiso   ? 		H 		0.41662
H 1.0  		0.8923564078687924 		0.46785756075616086  0.8429282771393942 		Uiso   ? 		H 		0.41662
H 1.0  		0.8923564078687923 		0.9679028128634133  0.8429282771393942 		Uiso   ? 		H 		0.41662
H 1.0  		0.6422391121347217 		0.2177402650220902  0.8429282771393942 		Uiso   ? 		H 		0.41662
H 1.0  		0.3923111557615399 		0.46785756075616086  0.8429282771393942 		Uiso   ? 		H 		0.41662
H 1.0  		0.14238319938835808 		0.7177855171293427  0.8429282771393942 		Uiso   ? 		H 		0.41662
H 1.0  		0.03332372751642422 		0.39136445895709615  0.8413216794066 		Uiso   ? 		H 		0.41347
H 1.0  		0.5333689796236767 		0.8914097110643485  0.8413216794066 		Uiso   ? 		H 		0.41347
H 1.0  		0.2832516838896061 		0.1412471632230255  0.8413216794066 		Uiso   ? 		H 		0.41347
H 1.0  		0.7832969359968585 		0.6412924153302779  0.8413216794066 		Uiso   ? 		H 		0.41347
H 1.0  		0.7832969359968585 		0.1412471632230255  0.8413216794066 		Uiso   ? 		H 		0.41347
H 1.0  		0.5333689796236767 		0.39136445895709615  0.8413216794066 		Uiso   ? 		H 		0.41347
H 1.0  		0.28325168388960603 		0.6412924153302779  0.8413216794066 		Uiso   ? 		H 		0.41347
H 1.0  		0.033323727516424186 		0.8914097110643485  0.8413216794066 		Uiso   ? 		H 		0.41347
H 1.0  		0.9661987586154143 		0.4089730195197521  0.8520323309585617 		Uiso   ? 		H 		0.43113
H 1.0  		0.4663428458690506 		0.9088289322661157  0.8520323309585617 		Uiso   ? 		H 		0.43113
H 1.0  		0.21622555013498002 		0.15885572378568147  0.8520323309585617 		Uiso   ? 		H 		0.43113
H 1.0  		0.7162708022422325 		0.658900975892934  0.8520323309585617 		Uiso   ? 		H 		0.43113
H 1.0  		0.7162708022422325 		0.15885572378568147  0.8520323309585617 		Uiso   ? 		H 		0.43113
H 1.0  		0.46634284586905067 		0.4089730195197521  0.8520323309585617 		Uiso   ? 		H 		0.43113
H 1.0  		0.21622555013498 		0.658900975892934  0.8520323309585617 		Uiso   ? 		H 		0.43113
H 1.0  		0.9661987586154142 		0.9088289322661157  0.8520323309585617 		Uiso   ? 		H 		0.43113
H 1.0  		0.9677134735025245 		0.10830211442837878  0.8409646576882013 		Uiso   ? 		H 		0.41374
H 1.0  		0.46766822139527203 		0.6083473665356313  0.8409646576882013 		Uiso   ? 		H 		0.41374
H 1.0  		0.21774026502209015 		0.8582753229088131  0.8409646576882013 		Uiso   ? 		H 		0.41374
H 1.0  		0.7177855171293427 		0.3582300708015606  0.8409646576882013 		Uiso   ? 		H 		0.41374
H 1.0  		0.7177855171293427 		0.8582753229088131  0.8409646576882013 		Uiso   ? 		H 		0.41374
H 1.0  		0.4676682213952721 		0.10830211442837878  0.8409646576882013 		Uiso   ? 		H 		0.41374
H 1.0  		0.21774026502209018 		0.3582300708015606  0.8409646576882013 		Uiso   ? 		H 		0.41374
H 1.0  		0.9677134735025245 		0.6083473665356313  0.8409646576882013 		Uiso   ? 		H 		0.41374
H 1.0  		0.03351306687731301 		0.08898949961772383  0.8532819069729574 		Uiso   ? 		H 		0.43084
H 1.0  		0.5335583189845655 		0.5890347517249763  0.8532819069729574 		Uiso   ? 		H 		0.43084
H 1.0  		0.2836303626113836 		0.8389627080981581  0.8532819069729574 		Uiso   ? 		H 		0.43084
H 1.0  		0.7836756147186361 		0.33910679535179444  0.8532819069729574 		Uiso   ? 		H 		0.43084
H 1.0  		0.7836756147186361 		0.8389627080981581  0.8532819069729574 		Uiso   ? 		H 		0.43084
H 1.0  		0.5335583189845655 		0.08898949961772383  0.8532819069729574 		Uiso   ? 		H 		0.43084
H 1.0  		0.28363036261138364 		0.33910679535179444  0.8532819069729574 		Uiso   ? 		H 		0.43084
H 1.0  		0.03351306687731298 		0.5890347517249763  0.8532819069729574 		Uiso   ? 		H 		0.43084
H 1.0  		0.8628194675701437 		0.28135829028071835  0.8386440165186095 		Uiso   ? 		H 		0.42266
H 1.0  		0.3629635548237799 		0.7814035423879707  0.8386440165186095 		Uiso   ? 		H 		0.42266
H 1.0  		0.11284625908970937 		0.0314303339075365  0.8386440165186095 		Uiso   ? 		H 		0.42266
H 1.0  		0.6128915111969618 		0.531475586014789  0.8386440165186095 		Uiso   ? 		H 		0.42266
H 1.0  		0.6128915111969618 		0.0314303339075365  0.8386440165186095 		Uiso   ? 		H 		0.42266
H 1.0  		0.36296355482377995 		0.28135829028071835  0.8386440165186095 		Uiso   ? 		H 		0.42266
H 1.0  		0.11284625908970934 		0.531475586014789  0.8386440165186095 		Uiso   ? 		H 		0.42266
H 1.0  		0.8628194675701437 		0.7814035423879707  0.8386440165186095 		Uiso   ? 		H 		0.42266
H 1.0  		0.8414241197897121 		0.2838197019722724  0.12138738425556715 		Uiso   ? 		H 		0.42325
H 1.0  		0.34156820704334845 		0.7838649540795247  0.12138738425556715 		Uiso   ? 		H 		0.42325
H 1.0  		0.09145091130927789 		0.03389174559909056  0.12138738425556715 		Uiso   ? 		H 		0.42325
H 1.0  		0.5914961634165303 		0.5337476583454542  0.12138738425556715 		Uiso   ? 		H 		0.42325
H 1.0  		0.5914961634165303 		0.03389174559909056  0.12138738425556715 		Uiso   ? 		H 		0.42325
H 1.0  		0.3415682070433485 		0.2838197019722724  0.12138738425556715 		Uiso   ? 		H 		0.42325
H 1.0  		0.09145091130927786 		0.5337476583454542  0.12138738425556715 		Uiso   ? 		H 		0.42325
H 1.0  		0.8414241197897121 		0.7838649540795247  0.12138738425556715 		Uiso   ? 		H 		0.42325
H 1.0  		0.8605473952394783 		0.21603621077409127  0.1313839923707315 		Uiso   ? 		H 		0.42118
H 1.0  		0.36050214313222584 		0.7160814628813437  0.1313839923707315 		Uiso   ? 		H 		0.42118
H 1.0  		0.11057418675904401 		0.9660094192545255  0.1313839923707315 		Uiso   ? 		H 		0.42118
H 1.0  		0.6104300995054078 		0.4661535065081619  0.1313839923707315 		Uiso   ? 		H 		0.42118
H 1.0  		0.6104300995054077 		0.9660094192545255  0.1313839923707315 		Uiso   ? 		H 		0.42118
H 1.0  		0.3605021431322259 		0.21603621077409127  0.1313839923707315 		Uiso   ? 		H 		0.42118
H 1.0  		0.11057418675904404 		0.4661535065081619  0.1313839923707315 		Uiso   ? 		H 		0.42118
H 1.0  		0.8605473952394783 		0.7160814628813437  0.1313839923707315 		Uiso   ? 		H 		0.42118
H 1.0  		0.14276187811013566 		0.28344102325049486  0.1308484597931334 		Uiso   ? 		H 		0.42055
H 1.0  		0.6428071302173881 		0.7834862753577473  0.1308484597931334 		Uiso   ? 		H 		0.42055
H 1.0  		0.39287917384420634 		0.033513066877313015  0.1308484597931334 		Uiso   ? 		H 		0.42055
H 1.0  		0.8929244259514587 		0.5333689796236767  0.1308484597931334 		Uiso   ? 		H 		0.42055
H 1.0  		0.8929244259514587 		0.033513066877313015  0.1308484597931334 		Uiso   ? 		H 		0.42055
H 1.0  		0.6428071302173881 		0.28344102325049486  0.1308484597931334 		Uiso   ? 		H 		0.42055
H 1.0  		0.3928791738442063 		0.5333689796236767  0.1308484597931334 		Uiso   ? 		H 		0.42055
H 1.0  		0.14276187811013563 		0.7834862753577473  0.1308484597931334 		Uiso   ? 		H 		0.42055
H 1.0  		0.16112779611634676 		0.21584687141320247  0.12192291683316524 		Uiso   ? 		H 		0.42439
H 1.0  		0.6611730482235992 		0.715892123520455  0.12192291683316524 		Uiso   ? 		H 		0.42439
H 1.0  		0.41124509185041735 		0.9658200798936367  0.12192291683316524 		Uiso   ? 		H 		0.42439
H 1.0  		0.9111010045967811 		0.4657748277863843  0.12192291683316524 		Uiso   ? 		H 		0.42439
H 1.0  		0.911101004596781 		0.9658200798936367  0.12192291683316524 		Uiso   ? 		H 		0.42439
H 1.0  		0.6611730482235992 		0.21584687141320247  0.12192291683316524 		Uiso   ? 		H 		0.42439
H 1.0  		0.41124509185041735 		0.4657748277863843  0.12192291683316524 		Uiso   ? 		H 		0.42439
H 1.0  		0.1611277961163467 		0.715892123520455  0.12192291683316524 		Uiso   ? 		H 		0.42439
H 1.0  		0.00719489571377341 		0.09637373469238603  0.1303129272155353 		Uiso   ? 		H 		0.41862
H 1.0  		0.5072401478210258 		0.5964189867996385  0.1303129272155353 		Uiso   ? 		H 		0.41862
H 1.0  		0.25731219144784395 		0.8463469431728202  0.1303129272155353 		Uiso   ? 		H 		0.41862
H 1.0  		0.7571681041942077 		0.34630169106556785  0.1303129272155353 		Uiso   ? 		H 		0.41862
H 1.0  		0.7571681041942077 		0.8463469431728202  0.1303129272155353 		Uiso   ? 		H 		0.41862
H 1.0  		0.5072401478210258 		0.09637373469238603  0.1303129272155353 		Uiso   ? 		H 		0.41862
H 1.0  		0.257312191447844 		0.34630169106556785  0.1303129272155353 		Uiso   ? 		H 		0.41862
H 1.0  		0.00719489571377338 		0.5964189867996385  0.1303129272155353 		Uiso   ? 		H 		0.41862
H 1.0  		0.03408108495997933 		0.08671742728705854  0.1192452539451748 		Uiso   ? 		H 		0.42259
H 1.0  		0.533936997706343 		0.586762679394311  0.1192452539451748 		Uiso   ? 		H 		0.42259
H 1.0  		0.2840090413331611 		0.8366906357674927  0.1192452539451748 		Uiso   ? 		H 		0.42259
H 1.0  		0.7840542934404136 		0.33683472302112916  0.1192452539451748 		Uiso   ? 		H 		0.42259
H 1.0  		0.7840542934404136 		0.8366906357674927  0.1192452539451748 		Uiso   ? 		H 		0.42259
H 1.0  		0.533936997706343 		0.08671742728705854  0.1192452539451748 		Uiso   ? 		H 		0.42259
H 1.0  		0.2840090413331612 		0.33683472302112916  0.1192452539451748 		Uiso   ? 		H 		0.42259
H 1.0  		0.0340810849599793 		0.586762679394311  0.1192452539451748 		Uiso   ? 		H 		0.42259
H 1.0  		0.9658200798936367 		0.3898497440699859  0.13370463354032322 		Uiso   ? 		H 		0.42296
H 1.0  		0.46577482778638424 		0.8898949961772383  0.13370463354032322 		Uiso   ? 		H 		0.42296
H 1.0  		0.21565753205231372 		0.13992178769680408  0.13370463354032322 		Uiso   ? 		H 		0.42296
H 1.0  		0.7157027841595661 		0.6397777004431677  0.13370463354032322 		Uiso   ? 		H 		0.42296
H 1.0  		0.7157027841595661 		0.13992178769680408  0.13370463354032322 		Uiso   ? 		H 		0.42296
H 1.0  		0.4657748277863843 		0.3898497440699859  0.13370463354032322 		Uiso   ? 		H 		0.42296
H 1.0  		0.2156575320523137 		0.6397777004431677  0.13370463354032322 		Uiso   ? 		H 		0.42296
H 1.0  		0.9658200798936367 		0.8898949961772383  0.13370463354032322 		Uiso   ? 		H 		0.42296
H 1.0  		0.7893557955452992 		0.2864704530247152  0.13174101408913022 		Uiso   ? 		H 		0.43496
H 1.0  		0.2893105434380468 		0.7865157051319677  0.13174101408913022 		Uiso   ? 		H 		0.43496
H 1.0  		0.03919324770397624 		0.036542496651533404  0.13174101408913022 		Uiso   ? 		H 		0.43496
H 1.0  		0.5392384998112286 		0.5365877487587859  0.13174101408913022 		Uiso   ? 		H 		0.43496
H 1.0  		0.5392384998112286 		0.036542496651533404  0.13174101408913022 		Uiso   ? 		H 		0.43496
H 1.0  		0.28931054343804685 		0.2864704530247152  0.13174101408913022 		Uiso   ? 		H 		0.43496
H 1.0  		0.039193247703976204 		0.5365877487587859  0.13174101408913022 		Uiso   ? 		H 		0.43496
H 1.0  		0.7893557955452992 		0.7865157051319677  0.13174101408913022 		Uiso   ? 		H 		0.43496
H 1.0  		0.8052603018599563 		0.3052150497527039  0.4482407674496016 		Uiso   ? 		H 		0.45846
H 1.0  		0.3054043891135926 		0.8052603018599563  0.4482407674496016 		Uiso   ? 		H 		0.45846
H 1.0  		0.055287093379522034 		0.055287093379522034  0.4482407674496016 		Uiso   ? 		H 		0.45846
H 1.0  		0.5553323454867745 		0.5553323454867745  0.4482407674496016 		Uiso   ? 		H 		0.45846
H 1.0  		0.5553323454867745 		0.055287093379522034  0.4482407674496016 		Uiso   ? 		H 		0.45846
H 1.0  		0.30540438911359263 		0.3052150497527039  0.4482407674496016 		Uiso   ? 		H 		0.45846
H 1.0  		0.055287093379522 		0.5553323454867745  0.4482407674496016 		Uiso   ? 		H 		0.45846
H 1.0  		0.8052603018599563 		0.8052603018599563  0.4482407674496016 		Uiso   ? 		H 		0.45846
H 1.0  		0.8082897316341767 		0.3012389231740396  0.772594998614845 		Uiso   ? 		H 		0.45257
H 1.0  		0.3082444795269242 		0.801284175281292  0.772594998614845 		Uiso   ? 		H 		0.45257
H 1.0  		0.058316523153742424 		0.05131096680085779  0.772594998614845 		Uiso   ? 		H 		0.45257
H 1.0  		0.5583617752609948 		0.5511668795472214  0.772594998614845 		Uiso   ? 		H 		0.45257
H 1.0  		0.5583617752609948 		0.05131096680085779  0.772594998614845 		Uiso   ? 		H 		0.45257
H 1.0  		0.30824447952692424 		0.3012389231740396  0.772594998614845 		Uiso   ? 		H 		0.45257
H 1.0  		0.05831652315374239 		0.5511668795472214  0.772594998614845 		Uiso   ? 		H 		0.45257
H 1.0  		0.8082897316341767 		0.801284175281292  0.772594998614845 		Uiso   ? 		H 		0.45257
H 1.0  		0.9930849478616203 		0.4019674631668675  0.8395365708146063 		Uiso   ? 		H 		0.41711
H 1.0  		0.49303969575436773 		0.901823375913231  0.8395365708146063 		Uiso   ? 		H 		0.41711
H 1.0  		0.24311173938118597 		0.15185016743279683  0.8395365708146063 		Uiso   ? 		H 		0.41711
H 1.0  		0.7429676521275496 		0.6518954195400493  0.8395365708146063 		Uiso   ? 		H 		0.41711
H 1.0  		0.7429676521275496 		0.15185016743279683  0.8395365708146063 		Uiso   ? 		H 		0.41711
H 1.0  		0.4930396957543678 		0.4019674631668675  0.8395365708146063 		Uiso   ? 		H 		0.41711
H 1.0  		0.24311173938118594 		0.6518954195400493  0.8395365708146063 		Uiso   ? 		H 		0.41711
H 1.0  		0.9930849478616203 		0.901823375913231  0.8395365708146063 		Uiso   ? 		H 		0.41711
H 1.0  		0.006816216991995861 		0.09599505597060848  0.8407861468290019 		Uiso   ? 		H 		0.41631
H 1.0  		0.5068614690992483 		0.5960403080778609  0.8407861468290019 		Uiso   ? 		H 		0.41631
H 1.0  		0.2567441733651777 		0.8459682644510428  0.8407861468290019 		Uiso   ? 		H 		0.41631
H 1.0  		0.7567894254724301 		0.3459230123437903  0.8407861468290019 		Uiso   ? 		H 		0.41631
H 1.0  		0.7567894254724301 		0.8459682644510428  0.8407861468290019 		Uiso   ? 		H 		0.41631
H 1.0  		0.5068614690992483 		0.09599505597060848  0.8407861468290019 		Uiso   ? 		H 		0.41631
H 1.0  		0.25674417336517774 		0.3459230123437903  0.8407861468290019 		Uiso   ? 		H 		0.41631
H 1.0  		0.006816216991995831 		0.5960403080778609  0.8407861468290019 		Uiso   ? 		H 		0.41631
H 1.0  		0.8495657123079294 		0.24027164896785433  0.8395365708146063 		Uiso   ? 		H 		0.41911
H 1.0  		0.34952046020067695 		0.740127561714218  0.8395365708146063 		Uiso   ? 		H 		0.41911
H 1.0  		0.09959250382749513 		0.9902448574482887  0.8395365708146063 		Uiso   ? 		H 		0.41911
H 1.0  		0.5994484165738588 		0.4901996053410362  0.8395365708146063 		Uiso   ? 		H 		0.41911
H 1.0  		0.5994484165738587 		0.9902448574482887  0.8395365708146063 		Uiso   ? 		H 		0.41911
H 1.0  		0.349520460200677 		0.24027164896785433  0.8395365708146063 		Uiso   ? 		H 		0.41911
H 1.0  		0.09959250382749515 		0.4901996053410362  0.8395365708146063 		Uiso   ? 		H 		0.41911
H 1.0  		0.8495657123079294 		0.740127561714218  0.8395365708146063 		Uiso   ? 		H 		0.41911
H 1.0  		0.15317554295901825 		0.2593949244176206  0.8413216794066 		Uiso   ? 		H 		0.41781
H 1.0  		0.6532207950662707 		0.759440176524873  0.8413216794066 		Uiso   ? 		H 		0.41781
H 1.0  		0.4031034993322001 		0.009466968044438705  0.8413216794066 		Uiso   ? 		H 		0.41781
H 1.0  		0.9031487514394524 		0.5095122201516911  0.8413216794066 		Uiso   ? 		H 		0.41781
H 1.0  		0.9031487514394524 		0.009466968044438705  0.8413216794066 		Uiso   ? 		H 		0.41781
H 1.0  		0.6532207950662707 		0.2593949244176206  0.8413216794066 		Uiso   ? 		H 		0.41781
H 1.0  		0.4031034993322 		0.5095122201516911  0.8413216794066 		Uiso   ? 		H 		0.41781
H 1.0  		0.15317554295901822 		0.759440176524873  0.8413216794066 		Uiso   ? 		H 		0.41781
H 1.0  		0.8489976942252632 		0.2565548340042889  0.13209803580752894 		Uiso   ? 		H 		0.41691
H 1.0  		0.34895244211801063 		0.7566000861115414  0.13209803580752894 		Uiso   ? 		H 		0.41691
H 1.0  		0.09902448574482886 		0.00643753827021832  0.13209803580752894 		Uiso   ? 		H 		0.41691
H 1.0  		0.5990697378520813 		0.5064827903774707  0.13209803580752894 		Uiso   ? 		H 		0.41691
H 1.0  		0.5990697378520813 		0.00643753827021832  0.13209803580752894 		Uiso   ? 		H 		0.41691
H 1.0  		0.3489524421180107 		0.2565548340042889  0.13209803580752894 		Uiso   ? 		H 		0.41691
H 1.0  		0.09902448574482883 		0.5064827903774707  0.13209803580752894 		Uiso   ? 		H 		0.41691
H 1.0  		0.8489976942252632 		0.7566000861115414  0.13209803580752894 		Uiso   ? 		H 		0.41691
H 1.0  		0.15336488231990703 		0.2434904181029635  0.13209803580752894 		Uiso   ? 		H 		0.41691
H 1.0  		0.6534101344271595 		0.7433463308493272  0.13209803580752894 		Uiso   ? 		H 		0.41691
H 1.0  		0.4034821780539775 		0.9934636265833977  0.13209803580752894 		Uiso   ? 		H 		0.41691
H 1.0  		0.9033380908003413 		0.49341837447614534  0.13209803580752894 		Uiso   ? 		H 		0.41691
H 1.0  		0.9033380908003412 		0.9934636265833977  0.13209803580752894 		Uiso   ? 		H 		0.41691
H 1.0  		0.6534101344271595 		0.2434904181029635  0.13209803580752894 		Uiso   ? 		H 		0.41691
H 1.0  		0.4034821780539775 		0.49341837447614534  0.13209803580752894 		Uiso   ? 		H 		0.41691
H 1.0  		0.153364882319907 		0.7433463308493272  0.13209803580752894 		Uiso   ? 		H 		0.41691
H 1.0  		0.9945996627487305 		0.400642087640646  0.13263356838512705 		Uiso   ? 		H 		0.41797
H 1.0  		0.4945544106414779 		0.9006873397478984  0.13263356838512705 		Uiso   ? 		H 		0.41797
H 1.0  		0.24443711490740735 		0.1507141312674642  0.13263356838512705 		Uiso   ? 		H 		0.41797
H 1.0  		0.7444823670146598 		0.6507593833747166  0.13263356838512705 		Uiso   ? 		H 		0.41797
H 1.0  		0.7444823670146598 		0.1507141312674642  0.13263356838512705 		Uiso   ? 		H 		0.41797
H 1.0  		0.494554410641478 		0.400642087640646  0.13263356838512705 		Uiso   ? 		H 		0.41797
H 1.0  		0.24443711490740733 		0.6507593833747166  0.13263356838512705 		Uiso   ? 		H 		0.41797
H 1.0  		0.9945996627487305 		0.9006873397478984  0.13263356838512705 		Uiso   ? 		H 		0.41797
H 1.0  		0.9675241341416357 		0.10849145378926756  0.1313839923707315 		Uiso   ? 		H 		0.42205
H 1.0  		0.46766822139527203 		0.60853670589652  0.1313839923707315 		Uiso   ? 		H 		0.42205
H 1.0  		0.2175509256612014 		0.8584646622697018  0.1313839923707315 		Uiso   ? 		H 		0.42205
H 1.0  		0.7175961777684539 		0.3584194101624494  0.1313839923707315 		Uiso   ? 		H 		0.42205
H 1.0  		0.7175961777684539 		0.8584646622697018  0.1313839923707315 		Uiso   ? 		H 		0.42205
H 1.0  		0.4676682213952721 		0.10849145378926756  0.1313839923707315 		Uiso   ? 		H 		0.42205
H 1.0  		0.21755092566120143 		0.3584194101624494  0.1313839923707315 		Uiso   ? 		H 		0.42205
H 1.0  		0.9675241341416357 		0.60853670589652  0.1313839923707315 		Uiso   ? 		H 		0.42205
N 1.0  		0.11417163461593077 		0.20013170445943423  0.3841553689970302 		Uiso   ? 		N 		-0.61398
N 1.0  		0.6142168867231833 		0.7001769565666867  0.3841553689970302 		Uiso   ? 		N 		-0.61398
N 1.0  		0.3642889303500013 		0.9501049129398684  0.3841553689970302 		Uiso   ? 		N 		-0.61398
N 1.0  		0.8641448430963651 		0.4502490001935049  0.3841553689970302 		Uiso   ? 		N 		-0.61398
N 1.0  		0.864144843096365 		0.9501049129398684  0.3841553689970302 		Uiso   ? 		N 		-0.61398
N 1.0  		0.6142168867231833 		0.20013170445943423  0.3841553689970302 		Uiso   ? 		N 		-0.61398
N 1.0  		0.36428893035000137 		0.4502490001935049  0.3841553689970302 		Uiso   ? 		N 		-0.61398
N 1.0  		0.11417163461593074 		0.7001769565666867  0.3841553689970302 		Uiso   ? 		N 		-0.61398
N 1.0  		0.11511833142037464 		0.20107840126387813  0.7094021544582704 		Uiso   ? 		N 		-0.61674
N 1.0  		0.6151635835276271 		0.7011236533711305  0.7094021544582704 		Uiso   ? 		N 		-0.61674
N 1.0  		0.3650462877935564 		0.9510516097443124  0.7094021544582704 		Uiso   ? 		N 		-0.61674
N 1.0  		0.8650915399008089 		0.45100635763706  0.7094021544582704 		Uiso   ? 		N 		-0.61674
N 1.0  		0.8650915399008088 		0.9510516097443124  0.7094021544582704 		Uiso   ? 		N 		-0.61674
N 1.0  		0.6151635835276271 		0.20107840126387813  0.7094021544582704 		Uiso   ? 		N 		-0.61674
N 1.0  		0.36504628779355647 		0.45100635763706  0.7094021544582704 		Uiso   ? 		N 		-0.61674
N 1.0  		0.11511833142037461 		0.7011236533711305  0.7094021544582704 		Uiso   ? 		N 		-0.61674
N 1.0  		0.8580859835479243 		0.17532824818300483  0.32292614429164845 		Uiso   ? 		N 		-0.61144
N 1.0  		0.3580407314406718 		0.6753735002902573  0.32292614429164845 		Uiso   ? 		N 		-0.61144
N 1.0  		0.10811277506748995 		0.925301456663439  0.32292614429164845 		Uiso   ? 		N 		-0.61144
N 1.0  		0.6081580271747424 		0.4254455439170754  0.32292614429164845 		Uiso   ? 		N 		-0.61144
N 1.0  		0.6081580271747423 		0.925301456663439  0.32292614429164845 		Uiso   ? 		N 		-0.61144
N 1.0  		0.35804073144067183 		0.17532824818300483  0.32292614429164845 		Uiso   ? 		N 		-0.61144
N 1.0  		0.10811277506748998 		0.4254455439170754  0.32292614429164845 		Uiso   ? 		N 		-0.61144
N 1.0  		0.8580859835479243 		0.6753735002902573  0.32292614429164845 		Uiso   ? 		N 		-0.61144
N 1.0  		0.8578966441870355 		0.17494956946122728  0.6471018645976925 		Uiso   ? 		N 		-0.61487
N 1.0  		0.3580407314406718 		0.6749948215684797  0.6471018645976925 		Uiso   ? 		N 		-0.61487
N 1.0  		0.10792343570660118 		0.9249227779416616  0.6471018645976925 		Uiso   ? 		N 		-0.61487
N 1.0  		0.6079686878138536 		0.4250668651952979  0.6471018645976925 		Uiso   ? 		N 		-0.61487
N 1.0  		0.6079686878138535 		0.9249227779416616  0.6471018645976925 		Uiso   ? 		N 		-0.61487
N 1.0  		0.35804073144067183 		0.17494956946122728  0.6471018645976925 		Uiso   ? 		N 		-0.61487
N 1.0  		0.1079234357066012 		0.4250668651952979  0.6471018645976925 		Uiso   ? 		N 		-0.61487
N 1.0  		0.8578966441870355 		0.6749948215684797  0.6471018645976925 		Uiso   ? 		N 		-0.61487
N 1.0  		0.8667955941488079 		0.1995636863767679  0.22046091111121388 		Uiso   ? 		N 		-0.61424
N 1.0  		0.36675034204155543 		0.6996089384840203  0.22046091111121388 		Uiso   ? 		N 		-0.61424
N 1.0  		0.11682238566837357 		0.9495368948572022  0.22046091111121388 		Uiso   ? 		N 		-0.61424
N 1.0  		0.616867637775626 		0.4496809821108385  0.22046091111121388 		Uiso   ? 		N 		-0.61424
N 1.0  		0.6168676377756259 		0.9495368948572022  0.22046091111121388 		Uiso   ? 		N 		-0.61424
N 1.0  		0.3667503420415555 		0.1995636863767679  0.22046091111121388 		Uiso   ? 		N 		-0.61424
N 1.0  		0.1168223856683736 		0.4496809821108385  0.22046091111121388 		Uiso   ? 		N 		-0.61424
N 1.0  		0.8667955941488079 		0.6996089384840203  0.22046091111121388 		Uiso   ? 		N 		-0.61424
N 1.0  		0.8643341824572539 		0.19994236509854546  0.5455291857132547 		Uiso   ? 		N 		-0.61479
N 1.0  		0.3642889303500013 		0.6999876172057979  0.5455291857132547 		Uiso   ? 		N 		-0.61479
N 1.0  		0.11417163461593073 		0.9501049129398684  0.5455291857132547 		Uiso   ? 		N 		-0.61479
N 1.0  		0.6142168867231833 		0.450059660832616  0.5455291857132547 		Uiso   ? 		N 		-0.61479
N 1.0  		0.6142168867231832 		0.9501049129398684  0.5455291857132547 		Uiso   ? 		N 		-0.61479
N 1.0  		0.36428893035000137 		0.19994236509854546  0.5455291857132547 		Uiso   ? 		N 		-0.61479
N 1.0  		0.11417163461593076 		0.450059660832616  0.5455291857132547 		Uiso   ? 		N 		-0.61479
N 1.0  		0.8643341824572539 		0.6999876172057979  0.5455291857132547 		Uiso   ? 		N 		-0.61479
N 1.0  		0.10924881123282264 		0.17532824818300483  0.16280190358981947 		Uiso   ? 		N 		-0.61090
N 1.0  		0.6092940633400751 		0.6753735002902573  0.16280190358981947 		Uiso   ? 		N 		-0.61090
N 1.0  		0.3591767676060044 		0.925301456663439  0.16280190358981947 		Uiso   ? 		N 		-0.61090
N 1.0  		0.859222019713257 		0.4254455439170754  0.16280190358981947 		Uiso   ? 		N 		-0.61090
N 1.0  		0.8592220197132568 		0.925301456663439  0.16280190358981947 		Uiso   ? 		N 		-0.61090
N 1.0  		0.6092940633400751 		0.17532824818300483  0.16280190358981947 		Uiso   ? 		N 		-0.61090
N 1.0  		0.3591767676060045 		0.4254455439170754  0.16280190358981947 		Uiso   ? 		N 		-0.61090
N 1.0  		0.10924881123282261 		0.6753735002902573  0.16280190358981947 		Uiso   ? 		N 		-0.61090
N 1.0  		0.10792343570660122 		0.17513890882211605  0.4844784718670724 		Uiso   ? 		N 		-0.61327
N 1.0  		0.6079686878138536 		0.6751841609293685  0.4844784718670724 		Uiso   ? 		N 		-0.61327
N 1.0  		0.357851392079783 		0.9251121173025504  0.4844784718670724 		Uiso   ? 		N 		-0.61327
N 1.0  		0.8578966441870355 		0.4250668651952979  0.4844784718670724 		Uiso   ? 		N 		-0.61327
N 1.0  		0.8578966441870354 		0.9251121173025504  0.4844784718670724 		Uiso   ? 		N 		-0.61327
N 1.0  		0.6079686878138536 		0.17513890882211605  0.4844784718670724 		Uiso   ? 		N 		-0.61327
N 1.0  		0.35785139207978306 		0.4250668651952979  0.4844784718670724 		Uiso   ? 		N 		-0.61327
N 1.0  		0.10792343570660119 		0.6751841609293685  0.4844784718670724 		Uiso   ? 		N 		-0.61327
N 1.0  		0.10565136337593595 		0.17494956946122728  0.8109748333427081 		Uiso   ? 		N 		-0.62453
N 1.0  		0.6056966154831883 		0.6749948215684797  0.8109748333427081 		Uiso   ? 		N 		-0.62453
N 1.0  		0.3555793197491177 		0.9249227779416616  0.8109748333427081 		Uiso   ? 		N 		-0.62453
N 1.0  		0.8556245718563702 		0.4250668651952979  0.8109748333427081 		Uiso   ? 		N 		-0.62453
N 1.0  		0.8556245718563701 		0.9249227779416616  0.8109748333427081 		Uiso   ? 		N 		-0.62453
N 1.0  		0.6056966154831883 		0.17494956946122728  0.8109748333427081 		Uiso   ? 		N 		-0.62453
N 1.0  		0.3555793197491178 		0.4250668651952979  0.8109748333427081 		Uiso   ? 		N 		-0.62453
N 1.0  		0.10565136337593592 		0.6749948215684797  0.8109748333427081 		Uiso   ? 		N 		-0.62453
N 1.0  		0.8857295302376853 		0.30010288700870696  0.3839768581378307 		Uiso   ? 		N 		-0.61644
N 1.0  		0.38587361749132154 		0.7999587997550706  0.3839768581378307 		Uiso   ? 		N 		-0.61644
N 1.0  		0.13575632175725103 		0.049985591274636365  0.3839768581378307 		Uiso   ? 		N 		-0.61644
N 1.0  		0.6358015738645035 		0.5500308433818888  0.3839768581378307 		Uiso   ? 		N 		-0.61644
N 1.0  		0.6358015738645035 		0.049985591274636365  0.3839768581378307 		Uiso   ? 		N 		-0.61644
N 1.0  		0.3858736174913216 		0.30010288700870696  0.3839768581378307 		Uiso   ? 		N 		-0.61644
N 1.0  		0.135756321757251 		0.5500308433818888  0.3839768581378307 		Uiso   ? 		N 		-0.61644
N 1.0  		0.8857295302376853 		0.7999587997550706  0.3839768581378307 		Uiso   ? 		N 		-0.61644
N 1.0  		0.8847828334332415 		0.2989668508433743  0.7083310893030742 		Uiso   ? 		N 		-0.61914
N 1.0  		0.38473758132598895 		0.7990121029506267  0.7083310893030742 		Uiso   ? 		N 		-0.61914
N 1.0  		0.13480962495280716 		0.049038894470192496  0.7083310893030742 		Uiso   ? 		N 		-0.61914
N 1.0  		0.6346655376991708 		0.5488948072165561  0.7083310893030742 		Uiso   ? 		N 		-0.61914
N 1.0  		0.6346655376991708 		0.049038894470192496  0.7083310893030742 		Uiso   ? 		N 		-0.61914
N 1.0  		0.384737581325989 		0.2989668508433743  0.7083310893030742 		Uiso   ? 		N 		-0.61914
N 1.0  		0.13480962495280713 		0.5488948072165561  0.7083310893030742 		Uiso   ? 		N 		-0.61914
N 1.0  		0.8847828334332415 		0.7990121029506267  0.7083310893030742 		Uiso   ? 		N 		-0.61914
N 1.0  		0.074599708190177 		0.10811277506749001  0.32542529632043954 		Uiso   ? 		N 		-0.61327
N 1.0  		0.5746449602974295 		0.6079686878138536  0.32542529632043954 		Uiso   ? 		N 		-0.61327
N 1.0  		0.32452766456335874 		0.8580859835479243  0.32542529632043954 		Uiso   ? 		N 		-0.61327
N 1.0  		0.8245729166706114 		0.35804073144067183  0.32542529632043954 		Uiso   ? 		N 		-0.61327
N 1.0  		0.8245729166706114 		0.8580859835479243  0.32542529632043954 		Uiso   ? 		N 		-0.61327
N 1.0  		0.5746449602974295 		0.10811277506749001  0.32542529632043954 		Uiso   ? 		N 		-0.61327
N 1.0  		0.3245276645633588 		0.35804073144067183  0.32542529632043954 		Uiso   ? 		N 		-0.61327
N 1.0  		0.07459970819017696 		0.6079686878138536  0.32542529632043954 		Uiso   ? 		N 		-0.61327
N 1.0  		0.074599708190177 		0.10811277506749001  0.649779527485683 		Uiso   ? 		N 		-0.61179
N 1.0  		0.5746449602974295 		0.6079686878138536  0.649779527485683 		Uiso   ? 		N 		-0.61179
N 1.0  		0.32452766456335874 		0.8580859835479243  0.649779527485683 		Uiso   ? 		N 		-0.61179
N 1.0  		0.8245729166706114 		0.35804073144067183  0.649779527485683 		Uiso   ? 		N 		-0.61179
N 1.0  		0.8245729166706114 		0.8580859835479243  0.649779527485683 		Uiso   ? 		N 		-0.61179
N 1.0  		0.5746449602974295 		0.10811277506749001  0.649779527485683 		Uiso   ? 		N 		-0.61179
N 1.0  		0.3245276645633588 		0.35804073144067183  0.649779527485683 		Uiso   ? 		N 		-0.61179
N 1.0  		0.07459970819017696 		0.6079686878138536  0.649779527485683 		Uiso   ? 		N 		-0.61179
N 1.0  		0.13405226750925203 		0.30010288700870696  0.22117495454801134 		Uiso   ? 		N 		-0.61773
N 1.0  		0.6340975196165045 		0.7999587997550706  0.22117495454801134 		Uiso   ? 		N 		-0.61773
N 1.0  		0.3839802238824339 		0.049985591274636365  0.22117495454801134 		Uiso   ? 		N 		-0.61773
N 1.0  		0.8840254759896863 		0.5500308433818888  0.22117495454801134 		Uiso   ? 		N 		-0.61773
N 1.0  		0.8840254759896863 		0.049985591274636365  0.22117495454801134 		Uiso   ? 		N 		-0.61773
N 1.0  		0.6340975196165045 		0.30010288700870696  0.22117495454801134 		Uiso   ? 		N 		-0.61773
N 1.0  		0.38398022388243386 		0.5500308433818888  0.22117495454801134 		Uiso   ? 		N 		-0.61773
N 1.0  		0.134052267509252 		0.7999587997550706  0.22117495454801134 		Uiso   ? 		N 		-0.61773
N 1.0  		0.13556698239636222 		0.2997242082869294  0.545707696572454 		Uiso   ? 		N 		-0.61617
N 1.0  		0.6356122345036147 		0.7997694603941818  0.545707696572454 		Uiso   ? 		N 		-0.61617
N 1.0  		0.3856842781304329 		0.04979625191374759  0.545707696572454 		Uiso   ? 		N 		-0.61617
N 1.0  		0.8855401908767965 		0.549841504021  0.545707696572454 		Uiso   ? 		N 		-0.61617
N 1.0  		0.8855401908767965 		0.04979625191374759  0.545707696572454 		Uiso   ? 		N 		-0.61617
N 1.0  		0.6356122345036147 		0.2997242082869294  0.545707696572454 		Uiso   ? 		N 		-0.61617
N 1.0  		0.3856842781304328 		0.549841504021  0.545707696572454 		Uiso   ? 		N 		-0.61617
N 1.0  		0.1355669823963622 		0.7997694603941818  0.545707696572454 		Uiso   ? 		N 		-0.61617
N 1.0  		0.07554640499462084 		0.3582300708015606  0.16298041444901884 		Uiso   ? 		N 		-0.62414
N 1.0  		0.5755916571018733 		0.8582753229088131  0.16298041444901884 		Uiso   ? 		N 		-0.62414
N 1.0  		0.3254743613678027 		0.10830211442837878  0.16298041444901884 		Uiso   ? 		N 		-0.62414
N 1.0  		0.8255196134750552 		0.6083473665356313  0.16298041444901884 		Uiso   ? 		N 		-0.62414
N 1.0  		0.8255196134750552 		0.10830211442837878  0.16298041444901884 		Uiso   ? 		N 		-0.62414
N 1.0  		0.5755916571018733 		0.3582300708015606  0.16298041444901884 		Uiso   ? 		N 		-0.62414
N 1.0  		0.32547436136780267 		0.6083473665356313  0.16298041444901884 		Uiso   ? 		N 		-0.62414
N 1.0  		0.07554640499462081 		0.8582753229088131  0.16298041444901884 		Uiso   ? 		N 		-0.62414
N 1.0  		0.07459970819017697 		0.35785139207978306  0.4869776238958635 		Uiso   ? 		N 		-0.61146
N 1.0  		0.5746449602974295 		0.8578966441870355  0.4869776238958635 		Uiso   ? 		N 		-0.61146
N 1.0  		0.3245276645633588 		0.10792343570660123  0.4869776238958635 		Uiso   ? 		N 		-0.61146
N 1.0  		0.8245729166706114 		0.6077793484529649  0.4869776238958635 		Uiso   ? 		N 		-0.61146
N 1.0  		0.8245729166706114 		0.10792343570660123  0.4869776238958635 		Uiso   ? 		N 		-0.61146
N 1.0  		0.5746449602974295 		0.35785139207978306  0.4869776238958635 		Uiso   ? 		N 		-0.61146
N 1.0  		0.32452766456335874 		0.6077793484529649  0.4869776238958635 		Uiso   ? 		N 		-0.61146
N 1.0  		0.07459970819017694 		0.8578966441870355  0.4869776238958635 		Uiso   ? 		N 		-0.61146
N 1.0  		0.0751677262728433 		0.35633667719267287  0.8072261052995215 		Uiso   ? 		N 		-0.62209
N 1.0  		0.5752129783800958 		0.8563819292999253  0.8072261052995215 		Uiso   ? 		N 		-0.62209
N 1.0  		0.32528502200691395 		0.10640872081949106  0.8072261052995215 		Uiso   ? 		N 		-0.62209
N 1.0  		0.8253302741141664 		0.6064539729267434  0.8072261052995215 		Uiso   ? 		N 		-0.62209
N 1.0  		0.8253302741141664 		0.10640872081949106  0.8072261052995215 		Uiso   ? 		N 		-0.62209
N 1.0  		0.5752129783800958 		0.35633667719267287  0.8072261052995215 		Uiso   ? 		N 		-0.62209
N 1.0  		0.3252850220069139 		0.6064539729267434  0.8072261052995215 		Uiso   ? 		N 		-0.62209
N 1.0  		0.07516772627284327 		0.8563819292999253  0.8072261052995215 		Uiso   ? 		N 		-0.62209
N 1.0  		0.045252107252417004 		0.13272689198303064  0.2645530933334566 		Uiso   ? 		N 		-0.60464
N 1.0  		0.5452973593596694 		0.6327721440902832  0.2645530933334566 		Uiso   ? 		N 		-0.60464
N 1.0  		0.2951800636255988 		0.8828894398243538  0.2645530933334566 		Uiso   ? 		N 		-0.60464
N 1.0  		0.7952253157328513 		0.3828441877171012  0.2645530933334566 		Uiso   ? 		N 		-0.60464
N 1.0  		0.7952253157328513 		0.8828894398243538  0.2645530933334566 		Uiso   ? 		N 		-0.60464
N 1.0  		0.5452973593596694 		0.13272689198303064  0.2645530933334566 		Uiso   ? 		N 		-0.60464
N 1.0  		0.29518006362559884 		0.3828441877171012  0.2645530933334566 		Uiso   ? 		N 		-0.60464
N 1.0  		0.04525210725241697 		0.6327721440902832  0.2645530933334566 		Uiso   ? 		N 		-0.60464
N 1.0  		0.045252107252417004 		0.13272689198303064  0.5887288136395007 		Uiso   ? 		N 		-0.60376
N 1.0  		0.5452973593596694 		0.6327721440902832  0.5887288136395007 		Uiso   ? 		N 		-0.60376
N 1.0  		0.2951800636255988 		0.8828894398243538  0.5887288136395007 		Uiso   ? 		N 		-0.60376
N 1.0  		0.7952253157328513 		0.3828441877171012  0.5887288136395007 		Uiso   ? 		N 		-0.60376
N 1.0  		0.7952253157328513 		0.8828894398243538  0.5887288136395007 		Uiso   ? 		N 		-0.60376
N 1.0  		0.5452973593596694 		0.13272689198303064  0.5887288136395007 		Uiso   ? 		N 		-0.60376
N 1.0  		0.29518006362559884 		0.3828441877171012  0.5887288136395007 		Uiso   ? 		N 		-0.60376
N 1.0  		0.04525210725241697 		0.6327721440902832  0.5887288136395007 		Uiso   ? 		N 		-0.60376
N 1.0  		0.045062767891528216 		0.3828441877171012  0.42610542090888054 		Uiso   ? 		N 		-0.60532
N 1.0  		0.544918680637892 		0.8828894398243538  0.42610542090888054 		Uiso   ? 		N 		-0.60532
N 1.0  		0.29499072426471007 		0.13291623134391942  0.42610542090888054 		Uiso   ? 		N 		-0.60532
N 1.0  		0.7950359763719624 		0.6329614834511719  0.42610542090888054 		Uiso   ? 		N 		-0.60532
N 1.0  		0.7950359763719624 		0.13291623134391942  0.42610542090888054 		Uiso   ? 		N 		-0.60532
N 1.0  		0.544918680637892 		0.3828441877171012  0.42610542090888054 		Uiso   ? 		N 		-0.60532
N 1.0  		0.29499072426471 		0.6329614834511719  0.42610542090888054 		Uiso   ? 		N 		-0.60532
N 1.0  		0.04506276789152818 		0.8828894398243538  0.42610542090888054 		Uiso   ? 		N 		-0.60532
N 1.0  		0.045062767891528216 		0.38303352707799004  0.7501026303557252 		Uiso   ? 		N 		-0.61003
N 1.0  		0.5451080199987807 		0.8830787791852424  0.7501026303557252 		Uiso   ? 		N 		-0.61003
N 1.0  		0.29518006362559884 		0.1331055707048082  0.7501026303557252 		Uiso   ? 		N 		-0.61003
N 1.0  		0.7950359763719624 		0.6329614834511719  0.7501026303557252 		Uiso   ? 		N 		-0.61003
N 1.0  		0.7950359763719624 		0.1331055707048082  0.7501026303557252 		Uiso   ? 		N 		-0.61003
N 1.0  		0.5451080199987807 		0.38303352707799004  0.7501026303557252 		Uiso   ? 		N 		-0.61003
N 1.0  		0.2951800636255988 		0.6329614834511719  0.7501026303557252 		Uiso   ? 		N 		-0.61003
N 1.0  		0.04506276789152818 		0.8830787791852424  0.7501026303557252 		Uiso   ? 		N 		-0.61003
N 1.0  		0.9552170756838654 		0.3690224143722208  0.2656241584886528 		Uiso   ? 		N 		-0.59981
N 1.0  		0.4551718235766129 		0.8690676664794732  0.2656241584886528 		Uiso   ? 		N 		-0.59981
N 1.0  		0.20505452784254236 		0.11909445799903892  0.2656241584886528 		Uiso   ? 		N 		-0.59981
N 1.0  		0.7050997799497948 		0.6191397101062913  0.2656241584886528 		Uiso   ? 		N 		-0.59981
N 1.0  		0.7050997799497948 		0.11909445799903892  0.2656241584886528 		Uiso   ? 		N 		-0.59981
N 1.0  		0.45517182357661295 		0.3690224143722208  0.2656241584886528 		Uiso   ? 		N 		-0.59981
N 1.0  		0.20505452784254233 		0.6191397101062913  0.2656241584886528 		Uiso   ? 		N 		-0.59981
N 1.0  		0.9552170756838654 		0.8690676664794732  0.2656241584886528 		Uiso   ? 		N 		-0.59981
N 1.0  		0.9550277363229766 		0.3692117537331095  0.5897998787946968 		Uiso   ? 		N 		-0.60179
N 1.0  		0.4549824842157241 		0.869257005840362  0.5897998787946968 		Uiso   ? 		N 		-0.60179
N 1.0  		0.20505452784254236 		0.1192837973599277  0.5897998787946968 		Uiso   ? 		N 		-0.60179
N 1.0  		0.7050997799497948 		0.6193290494671801  0.5897998787946968 		Uiso   ? 		N 		-0.60179
N 1.0  		0.7050997799497948 		0.1192837973599277  0.5897998787946968 		Uiso   ? 		N 		-0.60179
N 1.0  		0.4549824842157242 		0.3692117537331095  0.5897998787946968 		Uiso   ? 		N 		-0.60179
N 1.0  		0.20505452784254233 		0.6193290494671801  0.5897998787946968 		Uiso   ? 		N 		-0.60179
N 1.0  		0.9550277363229766 		0.869257005840362  0.5897998787946968 		Uiso   ? 		N 		-0.60179
N 1.0  		0.9552170756838654 		0.11909445799903892  0.4271764860640767 		Uiso   ? 		N 		-0.60311
N 1.0  		0.4551718235766129 		0.6189503707454026  0.4271764860640767 		Uiso   ? 		N 		-0.60311
N 1.0  		0.2050545278425423 		0.8690676664794732  0.4271764860640767 		Uiso   ? 		N 		-0.60311
N 1.0  		0.7050997799497948 		0.3690224143722208  0.4271764860640767 		Uiso   ? 		N 		-0.60311
N 1.0  		0.7050997799497948 		0.8690676664794732  0.4271764860640767 		Uiso   ? 		N 		-0.60311
N 1.0  		0.45517182357661295 		0.11909445799903892  0.4271764860640767 		Uiso   ? 		N 		-0.60311
N 1.0  		0.20505452784254233 		0.3690224143722208  0.4271764860640767 		Uiso   ? 		N 		-0.60311
N 1.0  		0.9552170756838654 		0.6189503707454026  0.4271764860640767 		Uiso   ? 		N 		-0.60311
N 1.0  		0.9555957544056429 		0.11871577927726137  0.7522447606661177 		Uiso   ? 		N 		-0.60292
N 1.0  		0.4557398416592792 		0.6187610313845138  0.7522447606661177 		Uiso   ? 		N 		-0.60292
N 1.0  		0.20562254592520865 		0.8686889877576957  0.7522447606661177 		Uiso   ? 		N 		-0.60292
N 1.0  		0.705667798032461 		0.36883307501133195  0.7522447606661177 		Uiso   ? 		N 		-0.60292
N 1.0  		0.705667798032461 		0.8686889877576957  0.7522447606661177 		Uiso   ? 		N 		-0.60292
N 1.0  		0.4557398416592793 		0.11871577927726137  0.7522447606661177 		Uiso   ? 		N 		-0.60292
N 1.0  		0.20562254592520868 		0.36883307501133195  0.7522447606661177 		Uiso   ? 		N 		-0.60292
N 1.0  		0.9555957544056429 		0.6187610313845138  0.7522447606661177 		Uiso   ? 		N 		-0.60292
Ti 1.0  		0.03180901262931402 		0.42980034921751725  0.15851764296903476 		Uiso   ? 		Ti 		2.12981
Ti 1.0  		0.5318542647365664 		0.9298456013247696  0.15851764296903476 		Uiso   ? 		Ti 		2.12981
Ti 1.0  		0.28192630836338467 		0.17968305348344663  0.15851764296903476 		Uiso   ? 		Ti 		2.12981
Ti 1.0  		0.7817822211097483 		0.6797283055906991  0.15851764296903476 		Uiso   ? 		Ti 		2.12981
Ti 1.0  		0.7817822211097483 		0.17968305348344663  0.15851764296903476 		Uiso   ? 		Ti 		2.12981
Ti 1.0  		0.5318542647365665 		0.42980034921751725  0.15851764296903476 		Uiso   ? 		Ti 		2.12981
Ti 1.0  		0.2819263083633846 		0.6797283055906991  0.15851764296903476 		Uiso   ? 		Ti 		2.12981
Ti 1.0  		0.031809012629313994 		0.9298456013247696  0.15851764296903476 		Uiso   ? 		Ti 		2.12981
Ti 1.0  		0.030862315824870153 		0.4303683673001836  0.48340740671187626 		Uiso   ? 		Ti 		2.09469
Ti 1.0  		0.5307182285712337 		0.9302242800465472  0.48340740671187626 		Uiso   ? 		Ti 		2.09469
Ti 1.0  		0.280790272198052 		0.18025107156611295  0.48340740671187626 		Uiso   ? 		Ti 		2.09469
Ti 1.0  		0.7808355243053043 		0.6802963236733653  0.48340740671187626 		Uiso   ? 		Ti 		2.09469
Ti 1.0  		0.7808355243053043 		0.18025107156611295  0.48340740671187626 		Uiso   ? 		Ti 		2.09469
Ti 1.0  		0.5307182285712339 		0.4303683673001836  0.48340740671187626 		Uiso   ? 		Ti 		2.09469
Ti 1.0  		0.28079027219805197 		0.6802963236733653  0.48340740671187626 		Uiso   ? 		Ti 		2.09469
Ti 1.0  		0.030862315824870125 		0.9302242800465472  0.48340740671187626 		Uiso   ? 		Ti 		2.09469
Ti 1.0  		0.02896892221598241 		0.42790695560862946  0.8115103659203062 		Uiso   ? 		Ti 		2.13411
Ti 1.0  		0.528824834962346 		0.9279522077158819  0.8115103659203062 		Uiso   ? 		Ti 		2.13411
Ti 1.0  		0.2788968785891643 		0.17797899923544766  0.8115103659203062 		Uiso   ? 		Ti 		2.13411
Ti 1.0  		0.7789421306964167 		0.6778349119818113  0.8115103659203062 		Uiso   ? 		Ti 		2.13411
Ti 1.0  		0.7789421306964167 		0.17797899923544766  0.8115103659203062 		Uiso   ? 		Ti 		2.13411
Ti 1.0  		0.5288248349623461 		0.42790695560862946  0.8115103659203062 		Uiso   ? 		Ti 		2.13411
Ti 1.0  		0.27889687858916423 		0.6778349119818113  0.8115103659203062 		Uiso   ? 		Ti 		2.13411
Ti 1.0  		0.028968922215982382 		0.9279522077158819  0.8115103659203062 		Uiso   ? 		Ti 		2.13411
Ti 1.0  		0.8217328262572796 		0.2817369690024959  0.16494403390021184 		Uiso   ? 		Ti 		2.09204
Ti 1.0  		0.3218769135109159 		0.7817822211097483  0.16494403390021184 		Uiso   ? 		Ti 		2.09204
Ti 1.0  		0.07175961777684539 		0.03180901262931405  0.16494403390021184 		Uiso   ? 		Ti 		2.09204
Ti 1.0  		0.5718048698840978 		0.5318542647365665  0.16494403390021184 		Uiso   ? 		Ti 		2.09204
Ti 1.0  		0.5718048698840978 		0.03180901262931405  0.16494403390021184 		Uiso   ? 		Ti 		2.09204
Ti 1.0  		0.32187691351091596 		0.2817369690024959  0.16494403390021184 		Uiso   ? 		Ti 		2.09204
Ti 1.0  		0.07175961777684536 		0.5318542647365665  0.16494403390021184 		Uiso   ? 		Ti 		2.09204
Ti 1.0  		0.8217328262572796 		0.7817822211097483  0.16494403390021184 		Uiso   ? 		Ti 		2.09204
Ti 1.0  		0.8204074507310583 		0.2811689509198296  0.4885842216286578 		Uiso   ? 		Ti 		2.10498
Ti 1.0  		0.3203621986238057 		0.7812142030270821  0.4885842216286578 		Uiso   ? 		Ti 		2.10498
Ti 1.0  		0.0702449028897352 		0.03124099454664773  0.4885842216286578 		Uiso   ? 		Ti 		2.10498
Ti 1.0  		0.5702901549969877 		0.5310969072930114  0.4885842216286578 		Uiso   ? 		Ti 		2.10498
Ti 1.0  		0.5702901549969877 		0.03124099454664773  0.4885842216286578 		Uiso   ? 		Ti 		2.10498
Ti 1.0  		0.32036219862380577 		0.2811689509198296  0.4885842216286578 		Uiso   ? 		Ti 		2.10498
Ti 1.0  		0.07024490288973517 		0.5310969072930114  0.4885842216286578 		Uiso   ? 		Ti 		2.10498
Ti 1.0  		0.8204074507310583 		0.7812142030270821  0.4885842216286578 		Uiso   ? 		Ti 		2.10498
Ti 1.0  		0.8236262198661674 		0.27927555731094184  0.8141880288082967 		Uiso   ? 		Ti 		2.10769
Ti 1.0  		0.32358096775891493 		0.7793208094181941  0.8141880288082967 		Uiso   ? 		Ti 		2.10769
Ti 1.0  		0.07346367202484436 		0.029347600937759986  0.8141880288082967 		Uiso   ? 		Ti 		2.10769
Ti 1.0  		0.5735089241320968 		0.5292035136841237  0.8141880288082967 		Uiso   ? 		Ti 		2.10769
Ti 1.0  		0.5735089241320968 		0.029347600937759986  0.8141880288082967 		Uiso   ? 		Ti 		2.10769
Ti 1.0  		0.323580967758915 		0.27927555731094184  0.8141880288082967 		Uiso   ? 		Ti 		2.10769
Ti 1.0  		0.07346367202484433 		0.5292035136841237  0.8141880288082967 		Uiso   ? 		Ti 		2.10769
Ti 1.0  		0.8236262198661674 		0.7793208094181941  0.8141880288082967 		Uiso   ? 		Ti 		2.10769
Ti 1.0  		0.03086231582487017 		0.18025107156611295  0.3218550791364523 		Uiso   ? 		Ti 		2.09160
Ti 1.0  		0.5309075679321226 		0.6802963236733653  0.3218550791364523 		Uiso   ? 		Ti 		2.09160
Ti 1.0  		0.28097961155894075 		0.9304136194074359  0.3218550791364523 		Uiso   ? 		Ti 		2.09160
Ti 1.0  		0.7808355243053043 		0.4303683673001836  0.3218550791364523 		Uiso   ? 		Ti 		2.09160
Ti 1.0  		0.7808355243053042 		0.9304136194074359  0.3218550791364523 		Uiso   ? 		Ti 		2.09160
Ti 1.0  		0.5309075679321226 		0.18025107156611295  0.3218550791364523 		Uiso   ? 		Ti 		2.09160
Ti 1.0  		0.2809796115589408 		0.4303683673001836  0.3218550791364523 		Uiso   ? 		Ti 		2.09160
Ti 1.0  		0.03086231582487014 		0.6802963236733653  0.3218550791364523 		Uiso   ? 		Ti 		2.09160
Ti 1.0  		0.030672976463981396 		0.18025107156611295  0.6458522885832969 		Uiso   ? 		Ti 		2.09461
Ti 1.0  		0.5307182285712339 		0.6802963236733653  0.6458522885832969 		Uiso   ? 		Ti 		2.09461
Ti 1.0  		0.2806009328371632 		0.9304136194074359  0.6458522885832969 		Uiso   ? 		Ti 		2.09461
Ti 1.0  		0.7806461849444157 		0.4303683673001836  0.6458522885832969 		Uiso   ? 		Ti 		2.09461
Ti 1.0  		0.7806461849444156 		0.9304136194074359  0.6458522885832969 		Uiso   ? 		Ti 		2.09461
Ti 1.0  		0.5307182285712339 		0.18025107156611295  0.6458522885832969 		Uiso   ? 		Ti 		2.09461
Ti 1.0  		0.28060093283716325 		0.4303683673001836  0.6458522885832969 		Uiso   ? 		Ti 		2.09461
Ti 1.0  		0.030672976463981365 		0.6802963236733653  0.6458522885832969 		Uiso   ? 		Ti 		2.09461
Ti 1.0  		0.07043424225062396 		0.28135829028071835  0.32685338319403445 		Uiso   ? 		Ti 		2.10447
Ti 1.0  		0.5704794943578764 		0.7814035423879707  0.32685338319403445 		Uiso   ? 		Ti 		2.10447
Ti 1.0  		0.32036219862380577 		0.0314303339075365  0.32685338319403445 		Uiso   ? 		Ti 		2.10447
Ti 1.0  		0.8204074507310583 		0.531475586014789  0.32685338319403445 		Uiso   ? 		Ti 		2.10447
Ti 1.0  		0.8204074507310583 		0.0314303339075365  0.32685338319403445 		Uiso   ? 		Ti 		2.10447
Ti 1.0  		0.5704794943578764 		0.28135829028071835  0.32685338319403445 		Uiso   ? 		Ti 		2.10447
Ti 1.0  		0.3203621986238057 		0.531475586014789  0.32685338319403445 		Uiso   ? 		Ti 		2.10447
Ti 1.0  		0.07043424225062393 		0.7814035423879707  0.32685338319403445 		Uiso   ? 		Ti 		2.10447
Ti 1.0  		0.07024490288973519 		0.2809796115589408  0.6506720817816798 		Uiso   ? 		Ti 		2.10686
Ti 1.0  		0.5701008156360988 		0.7808355243053043  0.6506720817816798 		Uiso   ? 		Ti 		2.10686
Ti 1.0  		0.32017285926291705 		0.03086231582487018  0.6506720817816798 		Uiso   ? 		Ti 		2.10686
Ti 1.0  		0.8202181113701694 		0.5309075679321226  0.6506720817816798 		Uiso   ? 		Ti 		2.10686
Ti 1.0  		0.8202181113701694 		0.03086231582487018  0.6506720817816798 		Uiso   ? 		Ti 		2.10686
Ti 1.0  		0.5701008156360988 		0.2809796115589408  0.6506720817816798 		Uiso   ? 		Ti 		2.10686
Ti 1.0  		0.320172859262917 		0.5309075679321226  0.6506720817816798 		Uiso   ? 		Ti 		2.10686
Ti 1.0  		0.07024490288973516 		0.7808355243053043  0.6506720817816798 		Uiso   ? 		Ti 		2.10686
Ti 1.0  		0.969796206472301 		0.06986622416795765  0.15744657781383856 		Uiso   ? 		Ti 		2.11682
Ti 1.0  		0.4697509543650485 		0.56991147627521  0.15744657781383856 		Uiso   ? 		Ti 		2.11682
Ti 1.0  		0.2198229979918667 		0.8198394326483919  0.15744657781383856 		Uiso   ? 		Ti 		2.11682
Ti 1.0  		0.7196789107382304 		0.3197941805411395  0.15744657781383856 		Uiso   ? 		Ti 		2.11682
Ti 1.0  		0.7196789107382304 		0.8198394326483919  0.15744657781383856 		Uiso   ? 		Ti 		2.11682
Ti 1.0  		0.46975095436504855 		0.06986622416795765  0.15744657781383856 		Uiso   ? 		Ti 		2.11682
Ti 1.0  		0.21982299799186672 		0.3197941805411395  0.15744657781383856 		Uiso   ? 		Ti 		2.11682
Ti 1.0  		0.969796206472301 		0.56991147627521  0.15744657781383856 		Uiso   ? 		Ti 		2.11682
Ti 1.0  		0.9690388490287459 		0.0702449028897352  0.48340740671187626 		Uiso   ? 		Ti 		2.09236
Ti 1.0  		0.4689935969214934 		0.5702901549969877  0.48340740671187626 		Uiso   ? 		Ti 		2.09236
Ti 1.0  		0.2190656405483116 		0.8202181113701694  0.48340740671187626 		Uiso   ? 		Ti 		2.09236
Ti 1.0  		0.719110892655564 		0.32036219862380577  0.48340740671187626 		Uiso   ? 		Ti 		2.09236
Ti 1.0  		0.719110892655564 		0.8202181113701694  0.48340740671187626 		Uiso   ? 		Ti 		2.09236
Ti 1.0  		0.46899359692149345 		0.0702449028897352  0.48340740671187626 		Uiso   ? 		Ti 		2.09236
Ti 1.0  		0.21906564054831162 		0.32036219862380577  0.48340740671187626 		Uiso   ? 		Ti 		2.09236
Ti 1.0  		0.9690388490287459 		0.5702901549969877  0.48340740671187626 		Uiso   ? 		Ti 		2.09236
Ti 1.0  		0.9715002607203 		0.07213829649862294  0.8115103659203062 		Uiso   ? 		Ti 		2.12838
Ti 1.0  		0.4714550086130475 		0.5721835486058753  0.8115103659203062 		Uiso   ? 		Ti 		2.12838
Ti 1.0  		0.22152705223986566 		0.8221115049790572  0.8115103659203062 		Uiso   ? 		Ti 		2.12838
Ti 1.0  		0.7215723043471182 		0.3222555922326935  0.8115103659203062 		Uiso   ? 		Ti 		2.12838
Ti 1.0  		0.7215723043471182 		0.8221115049790572  0.8115103659203062 		Uiso   ? 		Ti 		2.12838
Ti 1.0  		0.47145500861304757 		0.07213829649862294  0.8115103659203062 		Uiso   ? 		Ti 		2.12838
Ti 1.0  		0.22152705223986568 		0.3222555922326935  0.8115103659203062 		Uiso   ? 		Ti 		2.12838
Ti 1.0  		0.9715002607203 		0.5721835486058753  0.8115103659203062 		Uiso   ? 		Ti 		2.12838
Ti 1.0  		0.18025107156611295 		0.21811894374386775  0.1656580773370093 		Uiso   ? 		Ti 		2.08551
Ti 1.0  		0.6802963236733653 		0.7181641958511202  0.1656580773370093 		Uiso   ? 		Ti 		2.08551
Ti 1.0  		0.4303683673001835 		0.9680921522243021  0.1656580773370093 		Uiso   ? 		Ti 		2.08551
Ti 1.0  		0.9304136194074359 		0.4680469001170496  0.1656580773370093 		Uiso   ? 		Ti 		2.08551
Ti 1.0  		0.9304136194074358 		0.9680921522243021  0.1656580773370093 		Uiso   ? 		Ti 		2.08551
Ti 1.0  		0.6802963236733653 		0.21811894374386775  0.1656580773370093 		Uiso   ? 		Ti 		2.08551
Ti 1.0  		0.4303683673001835 		0.4680469001170496  0.1656580773370093 		Uiso   ? 		Ti 		2.08551
Ti 1.0  		0.1802510715661129 		0.7181641958511202  0.1656580773370093 		Uiso   ? 		Ti 		2.08551
Ti 1.0  		0.1798723928443354 		0.2186869618265341  0.4885842216286578 		Uiso   ? 		Ti 		2.10206
Ti 1.0  		0.6799176449515879 		0.7187322139337865  0.4885842216286578 		Uiso   ? 		Ti 		2.10206
Ti 1.0  		0.4299896885784059 		0.9688495096678571  0.4885842216286578 		Uiso   ? 		Ti 		2.10206
Ti 1.0  		0.9298456013247696 		0.4688042575606047  0.4885842216286578 		Uiso   ? 		Ti 		2.10206
Ti 1.0  		0.9298456013247695 		0.9688495096678571  0.4885842216286578 		Uiso   ? 		Ti 		2.10206
Ti 1.0  		0.6799176449515879 		0.2186869618265341  0.4885842216286578 		Uiso   ? 		Ti 		2.10206
Ti 1.0  		0.4299896885784059 		0.4688042575606047  0.4885842216286578 		Uiso   ? 		Ti 		2.10206
Ti 1.0  		0.17987239284433534 		0.7187322139337865  0.4885842216286578 		Uiso   ? 		Ti 		2.10206
Ti 1.0  		0.17797899923544766 		0.22058035543542184  0.8134739853714993 		Uiso   ? 		Ti 		2.11084
Ti 1.0  		0.6780242513427001 		0.7206256075426742  0.8134739853714993 		Uiso   ? 		Ti 		2.11084
Ti 1.0  		0.42809629496951823 		0.9705535639158561  0.8134739853714993 		Uiso   ? 		Ti 		2.11084
Ti 1.0  		0.9281415470767708 		0.47069765116949247  0.8134739853714993 		Uiso   ? 		Ti 		2.11084
Ti 1.0  		0.9281415470767707 		0.9705535639158561  0.8134739853714993 		Uiso   ? 		Ti 		2.11084
Ti 1.0  		0.6780242513427001 		0.22058035543542184  0.8134739853714993 		Uiso   ? 		Ti 		2.11084
Ti 1.0  		0.42809629496951823 		0.47069765116949247  0.8134739853714993 		Uiso   ? 		Ti 		2.11084
Ti 1.0  		0.1779789992354476 		0.7206256075426742  0.8134739853714993 		Uiso   ? 		Ti 		2.11084
Ti 1.0  		0.9688495096678571 		0.32017285926291705  0.32167656827725294 		Uiso   ? 		Ti 		2.09497
Ti 1.0  		0.4688042575606046 		0.8200287720092808  0.32167656827725294 		Uiso   ? 		Ti 		2.09497
Ti 1.0  		0.21887630118742285 		0.07005556352884643  0.32167656827725294 		Uiso   ? 		Ti 		2.09497
Ti 1.0  		0.7187322139337865 		0.5701008156360988  0.32167656827725294 		Uiso   ? 		Ti 		2.09497
Ti 1.0  		0.7187322139337865 		0.07005556352884643  0.32167656827725294 		Uiso   ? 		Ti 		2.09497
Ti 1.0  		0.4688042575606047 		0.32017285926291705  0.32167656827725294 		Uiso   ? 		Ti 		2.09497
Ti 1.0  		0.21887630118742282 		0.5701008156360988  0.32167656827725294 		Uiso   ? 		Ti 		2.09497
Ti 1.0  		0.9688495096678571 		0.8200287720092808  0.32167656827725294 		Uiso   ? 		Ti 		2.09497
Ti 1.0  		0.9688495096678571 		0.32017285926291705  0.6453167560056989 		Uiso   ? 		Ti 		2.08990
Ti 1.0  		0.4688042575606046 		0.8200287720092808  0.6453167560056989 		Uiso   ? 		Ti 		2.08990
Ti 1.0  		0.21887630118742285 		0.07005556352884643  0.6453167560056989 		Uiso   ? 		Ti 		2.08990
Ti 1.0  		0.7187322139337865 		0.5701008156360988  0.6453167560056989 		Uiso   ? 		Ti 		2.08990
Ti 1.0  		0.7187322139337865 		0.07005556352884643  0.6453167560056989 		Uiso   ? 		Ti 		2.08990
Ti 1.0  		0.4688042575606047 		0.32017285926291705  0.6453167560056989 		Uiso   ? 		Ti 		2.08990
Ti 1.0  		0.21887630118742282 		0.5701008156360988  0.6453167560056989 		Uiso   ? 		Ti 		2.08990
Ti 1.0  		0.9688495096678571 		0.8200287720092808  0.6453167560056989 		Uiso   ? 		Ti 		2.08990
Ti 1.0  		0.9302242800465472 		0.2186869618265341  0.32703189405323385 		Uiso   ? 		Ti 		2.09971
Ti 1.0  		0.4301790279392947 		0.7185428745728978  0.32703189405323385 		Uiso   ? 		Ti 		2.09971
Ti 1.0  		0.1802510715661129 		0.9686601703069683  0.32703189405323385 		Uiso   ? 		Ti 		2.09971
Ti 1.0  		0.6802963236733653 		0.46861491819971596  0.32703189405323385 		Uiso   ? 		Ti 		2.09971
Ti 1.0  		0.6802963236733652 		0.9686601703069683  0.32703189405323385 		Uiso   ? 		Ti 		2.09971
Ti 1.0  		0.43017902793929474 		0.2186869618265341  0.32703189405323385 		Uiso   ? 		Ti 		2.09971
Ti 1.0  		0.18025107156611292 		0.46861491819971596  0.32703189405323385 		Uiso   ? 		Ti 		2.09971
Ti 1.0  		0.9302242800465472 		0.7185428745728978  0.32703189405323385 		Uiso   ? 		Ti 		2.09971
Ti 1.0  		0.9300349406856584 		0.2186869618265341  0.650315060063281 		Uiso   ? 		Ti 		2.10492
Ti 1.0  		0.4301790279392947 		0.7187322139337865  0.650315060063281 		Uiso   ? 		Ti 		2.10492
Ti 1.0  		0.18006173220522412 		0.9688495096678571  0.650315060063281 		Uiso   ? 		Ti 		2.10492
Ti 1.0  		0.6801069843124766 		0.4688042575606047  0.650315060063281 		Uiso   ? 		Ti 		2.10492
Ti 1.0  		0.6801069843124765 		0.9688495096678571  0.650315060063281 		Uiso   ? 		Ti 		2.10492
Ti 1.0  		0.43017902793929474 		0.2186869618265341  0.650315060063281 		Uiso   ? 		Ti 		2.10492
Ti 1.0  		0.18006173220522415 		0.4688042575606047  0.650315060063281 		Uiso   ? 		Ti 		2.10492
Ti 1.0  		0.9300349406856584 		0.7187322139337865  0.650315060063281 		Uiso   ? 		Ti 		2.10492
Ti 1.0  		0.821543486896391 		0.21830828310475656  0.1567325343770411 		Uiso   ? 		Ti 		2.14890
Ti 1.0  		0.32149823478913836 		0.718353535212009  0.1567325343770411 		Uiso   ? 		Ti 		2.14890
Ti 1.0  		0.07157027841595656 		0.9682814915851908  0.1567325343770411 		Uiso   ? 		Ti 		2.14890
Ti 1.0  		0.5716155305232091 		0.4684255788388272  0.1567325343770411 		Uiso   ? 		Ti 		2.14890
Ti 1.0  		0.571615530523209 		0.9682814915851908  0.1567325343770411 		Uiso   ? 		Ti 		2.14890
Ti 1.0  		0.3214982347891384 		0.21830828310475656  0.1567325343770411 		Uiso   ? 		Ti 		2.14890
Ti 1.0  		0.07157027841595659 		0.4684255788388272  0.1567325343770411 		Uiso   ? 		Ti 		2.14890
Ti 1.0  		0.821543486896391 		0.718353535212009  0.1567325343770411 		Uiso   ? 		Ti 		2.14890
Ti 1.0  		0.8204074507310583 		0.21811894374386775  0.48233634155668004 		Uiso   ? 		Ti 		2.10479
Ti 1.0  		0.32055153798469455 		0.7181641958511202  0.48233634155668004 		Uiso   ? 		Ti 		2.10479
Ti 1.0  		0.07043424225062392 		0.9680921522243021  0.48233634155668004 		Uiso   ? 		Ti 		2.10479
Ti 1.0  		0.5704794943578764 		0.4680469001170496  0.48233634155668004 		Uiso   ? 		Ti 		2.10479
Ti 1.0  		0.5704794943578763 		0.9680921522243021  0.48233634155668004 		Uiso   ? 		Ti 		2.10479
Ti 1.0  		0.3205515379846946 		0.21811894374386775  0.48233634155668004 		Uiso   ? 		Ti 		2.10479
Ti 1.0  		0.07043424225062395 		0.4680469001170496  0.48233634155668004 		Uiso   ? 		Ti 		2.10479
Ti 1.0  		0.8204074507310583 		0.7181641958511202  0.48233634155668004 		Uiso   ? 		Ti 		2.10479
Ti 1.0  		0.8190820752048368 		0.21584687141320247  0.8075831270179202 		Uiso   ? 		Ti 		2.09492
Ti 1.0  		0.31903682309758435 		0.715892123520455  0.8075831270179202 		Uiso   ? 		Ti 		2.09492
Ti 1.0  		0.06891952736351371 		0.9658200798936367  0.8075831270179202 		Uiso   ? 		Ti 		2.09492
Ti 1.0  		0.5689647794707662 		0.4657748277863843  0.8075831270179202 		Uiso   ? 		Ti 		2.09492
Ti 1.0  		0.5689647794707661 		0.9658200798936367  0.8075831270179202 		Uiso   ? 		Ti 		2.09492
Ti 1.0  		0.3190368230975844 		0.21584687141320247  0.8075831270179202 		Uiso   ? 		Ti 		2.09492
Ti 1.0  		0.06891952736351374 		0.4657748277863843  0.8075831270179202 		Uiso   ? 		Ti 		2.09492
Ti 1.0  		0.8190820752048368 		0.715892123520455  0.8075831270179202 		Uiso   ? 		Ti 		2.09492
Ti 1.0  		0.9682814915851908 		0.42904299177396216  0.16387296874501564 		Uiso   ? 		Ti 		2.11524
Ti 1.0  		0.4682362394779383 		0.9290882438812146  0.16387296874501564 		Uiso   ? 		Ti 		2.11524
Ti 1.0  		0.21830828310475656 		0.1791150354007803  0.16387296874501564 		Uiso   ? 		Ti 		2.11524
Ti 1.0  		0.718353535212009 		0.6791602875080328  0.16387296874501564 		Uiso   ? 		Ti 		2.11524
Ti 1.0  		0.718353535212009 		0.1791150354007803  0.16387296874501564 		Uiso   ? 		Ti 		2.11524
Ti 1.0  		0.46823623947793835 		0.42904299177396216  0.16387296874501564 		Uiso   ? 		Ti 		2.11524
Ti 1.0  		0.21830828310475653 		0.6791602875080328  0.16387296874501564 		Uiso   ? 		Ti 		2.11524
Ti 1.0  		0.9682814915851907 		0.9290882438812146  0.16387296874501564 		Uiso   ? 		Ti 		2.11524
Ti 1.0  		0.9677134735025245 		0.42904299177396216  0.488227199910259 		Uiso   ? 		Ti 		2.11070
Ti 1.0  		0.46766822139527203 		0.9290882438812146  0.488227199910259 		Uiso   ? 		Ti 		2.11070
Ti 1.0  		0.2177402650220902 		0.1791150354007803  0.488227199910259 		Uiso   ? 		Ti 		2.11070
Ti 1.0  		0.7177855171293427 		0.6791602875080328  0.488227199910259 		Uiso   ? 		Ti 		2.11070
Ti 1.0  		0.7177855171293427 		0.1791150354007803  0.488227199910259 		Uiso   ? 		Ti 		2.11070
Ti 1.0  		0.4676682213952721 		0.42904299177396216  0.488227199910259 		Uiso   ? 		Ti 		2.11070
Ti 1.0  		0.21774026502209018 		0.6791602875080328  0.488227199910259 		Uiso   ? 		Ti 		2.11070
Ti 1.0  		0.9677134735025243 		0.9290882438812146  0.488227199910259 		Uiso   ? 		Ti 		2.11070
Ti 1.0  		0.9652520618109705 		0.43055770666107235  0.8097252573283126 		Uiso   ? 		Ti 		2.11630
Ti 1.0  		0.4652068097037179 		0.9306029587683248  0.8097252573283126 		Uiso   ? 		Ti 		2.11630
Ti 1.0  		0.21527885333053617 		0.1806297502878905  0.8097252573283126 		Uiso   ? 		Ti 		2.11630
Ti 1.0  		0.7151347660768999 		0.6804856630342542  0.8097252573283126 		Uiso   ? 		Ti 		2.11630
Ti 1.0  		0.7151347660768999 		0.1806297502878905  0.8097252573283126 		Uiso   ? 		Ti 		2.11630
Ti 1.0  		0.46520680970371797 		0.43055770666107235  0.8097252573283126 		Uiso   ? 		Ti 		2.11630
Ti 1.0  		0.21527885333053612 		0.6804856630342542  0.8097252573283126 		Uiso   ? 		Ti 		2.11630
Ti 1.0  		0.9652520618109703 		0.9306029587683248  0.8097252573283126 		Uiso   ? 		Ti 		2.11630
Ti 1.0  		0.07024490288973519 		0.2186869618265341  0.3209625248404555 		Uiso   ? 		Ti 		2.10471
Ti 1.0  		0.5702901549969877 		0.7185428745728978  0.3209625248404555 		Uiso   ? 		Ti 		2.10471
Ti 1.0  		0.3203621986238057 		0.9686601703069683  0.3209625248404555 		Uiso   ? 		Ti 		2.10471
Ti 1.0  		0.8202181113701694 		0.46861491819971596  0.3209625248404555 		Uiso   ? 		Ti 		2.10471
Ti 1.0  		0.8202181113701693 		0.9686601703069683  0.3209625248404555 		Uiso   ? 		Ti 		2.10471
Ti 1.0  		0.5702901549969877 		0.2186869618265341  0.3209625248404555 		Uiso   ? 		Ti 		2.10471
Ti 1.0  		0.3203621986238057 		0.46861491819971596  0.3209625248404555 		Uiso   ? 		Ti 		2.10471
Ti 1.0  		0.07024490288973516 		0.7185428745728978  0.3209625248404555 		Uiso   ? 		Ti 		2.10471
Ti 1.0  		0.07062358161151273 		0.217929604382979  0.6447812234281007 		Uiso   ? 		Ti 		2.10322
Ti 1.0  		0.5706688337187651 		0.7179748564902314  0.6447812234281007 		Uiso   ? 		Ti 		2.10322
Ti 1.0  		0.32074087734558326 		0.9679028128634133  0.6447812234281007 		Uiso   ? 		Ti 		2.10322
Ti 1.0  		0.820596790091947 		0.4680469001170496  0.6447812234281007 		Uiso   ? 		Ti 		2.10322
Ti 1.0  		0.8205967900919469 		0.9679028128634133  0.6447812234281007 		Uiso   ? 		Ti 		2.10322
Ti 1.0  		0.5706688337187651 		0.217929604382979  0.6447812234281007 		Uiso   ? 		Ti 		2.10322
Ti 1.0  		0.32074087734558326 		0.4680469001170496  0.6447812234281007 		Uiso   ? 		Ti 		2.10322
Ti 1.0  		0.0706235816115127 		0.7179748564902314  0.6447812234281007 		Uiso   ? 		Ti 		2.10322
Ti 1.0  		0.9680921522243021 		0.1791150354007803  0.3264963614756357 		Uiso   ? 		Ti 		2.11068
Ti 1.0  		0.4680469001170495 		0.6791602875080328  0.3264963614756357 		Uiso   ? 		Ti 		2.11068
Ti 1.0  		0.2181189437438677 		0.9290882438812146  0.3264963614756357 		Uiso   ? 		Ti 		2.11068
Ti 1.0  		0.7181641958511202 		0.42904299177396216  0.3264963614756357 		Uiso   ? 		Ti 		2.11068
Ti 1.0  		0.7181641958511201 		0.9290882438812146  0.3264963614756357 		Uiso   ? 		Ti 		2.11068
Ti 1.0  		0.4680469001170496 		0.1791150354007803  0.3264963614756357 		Uiso   ? 		Ti 		2.11068
Ti 1.0  		0.21811894374386773 		0.42904299177396216  0.3264963614756357 		Uiso   ? 		Ti 		2.11068
Ti 1.0  		0.9680921522243021 		0.6791602875080328  0.3264963614756357 		Uiso   ? 		Ti 		2.11068
Ti 1.0  		0.9677134735025245 		0.17892569603989153  0.6504935709224804 		Uiso   ? 		Ti 		2.11204
Ti 1.0  		0.46766822139527203 		0.678970948147144  0.6504935709224804 		Uiso   ? 		Ti 		2.11204
Ti 1.0  		0.21774026502209015 		0.9290882438812146  0.6504935709224804 		Uiso   ? 		Ti 		2.11204
Ti 1.0  		0.7177855171293427 		0.42904299177396216  0.6504935709224804 		Uiso   ? 		Ti 		2.11204
Ti 1.0  		0.7177855171293426 		0.9290882438812146  0.6504935709224804 		Uiso   ? 		Ti 		2.11204
Ti 1.0  		0.4676682213952721 		0.17892569603989153  0.6504935709224804 		Uiso   ? 		Ti 		2.11204
Ti 1.0  		0.21774026502209018 		0.42904299177396216  0.6504935709224804 		Uiso   ? 		Ti 		2.11204
Ti 1.0  		0.9677134735025245 		0.678970948147144  0.6504935709224804 		Uiso   ? 		Ti 		2.11204
Ti 1.0  		0.18081908964877924 		0.2809796115589408  0.15744657781383856 		Uiso   ? 		Ti 		2.12271
Ti 1.0  		0.680675002395143 		0.7808355243053043  0.15744657781383856 		Uiso   ? 		Ti 		2.12271
Ti 1.0  		0.43074704602196107 		0.03086231582487018  0.15744657781383856 		Uiso   ? 		Ti 		2.12271
Ti 1.0  		0.9307922981292136 		0.5309075679321226  0.15744657781383856 		Uiso   ? 		Ti 		2.12271
Ti 1.0  		0.9307922981292136 		0.03086231582487018  0.15744657781383856 		Uiso   ? 		Ti 		2.12271
Ti 1.0  		0.680675002395143 		0.2809796115589408  0.15744657781383856 		Uiso   ? 		Ti 		2.12271
Ti 1.0  		0.430747046021961 		0.5309075679321226  0.15744657781383856 		Uiso   ? 		Ti 		2.12271
Ti 1.0  		0.1808190896487792 		0.7808355243053043  0.15744657781383856 		Uiso   ? 		Ti 		2.12271
Ti 1.0  		0.18025107156611292 		0.2815476296416071  0.4825148524158794 		Uiso   ? 		Ti 		2.10655
Ti 1.0  		0.6802963236733653 		0.7815928817488595  0.4825148524158794 		Uiso   ? 		Ti 		2.10655
Ti 1.0  		0.4303683673001836 		0.031619673268425276  0.4825148524158794 		Uiso   ? 		Ti 		2.10655
Ti 1.0  		0.9304136194074359 		0.531475586014789  0.4825148524158794 		Uiso   ? 		Ti 		2.10655
Ti 1.0  		0.9304136194074359 		0.031619673268425276  0.4825148524158794 		Uiso   ? 		Ti 		2.10655
Ti 1.0  		0.6802963236733653 		0.2815476296416071  0.4825148524158794 		Uiso   ? 		Ti 		2.10655
Ti 1.0  		0.4303683673001835 		0.531475586014789  0.4825148524158794 		Uiso   ? 		Ti 		2.10655
Ti 1.0  		0.1802510715661129 		0.7815928817488595  0.4825148524158794 		Uiso   ? 		Ti 		2.10655
Ti 1.0  		0.18214446517500066 		0.2838197019722724  0.8079401487363189 		Uiso   ? 		Ti 		2.08616
Ti 1.0  		0.6820003779213644 		0.7838649540795247  0.8079401487363189 		Uiso   ? 		Ti 		2.08616
Ti 1.0  		0.43207242154818254 		0.03389174559909056  0.8079401487363189 		Uiso   ? 		Ti 		2.08616
Ti 1.0  		0.932117673655435 		0.5337476583454542  0.8079401487363189 		Uiso   ? 		Ti 		2.08616
Ti 1.0  		0.932117673655435 		0.03389174559909056  0.8079401487363189 		Uiso   ? 		Ti 		2.08616
Ti 1.0  		0.6820003779213644 		0.2838197019722724  0.8079401487363189 		Uiso   ? 		Ti 		2.08616
Ti 1.0  		0.4320724215481825 		0.5337476583454542  0.8079401487363189 		Uiso   ? 		Ti 		2.08616
Ti 1.0  		0.18214446517500063 		0.7838649540795247  0.8079401487363189 		Uiso   ? 		Ti 		2.08616
Ti 1.0  		0.03275570943375791 		0.07062358161151275  0.164051479604215 		Uiso   ? 		Ti 		2.09986
Ti 1.0  		0.5326116221801216 		0.5706688337187651  0.164051479604215 		Uiso   ? 		Ti 		2.09986
Ti 1.0  		0.2826836658069397 		0.820596790091947  0.164051479604215 		Uiso   ? 		Ti 		2.09986
Ti 1.0  		0.7827289179141923 		0.3207408773455833  0.164051479604215 		Uiso   ? 		Ti 		2.09986
Ti 1.0  		0.7827289179141923 		0.820596790091947  0.164051479604215 		Uiso   ? 		Ti 		2.09986
Ti 1.0  		0.5326116221801216 		0.07062358161151275  0.164051479604215 		Uiso   ? 		Ti 		2.09986
Ti 1.0  		0.28268366580693977 		0.3207408773455833  0.164051479604215 		Uiso   ? 		Ti 		2.09986
Ti 1.0  		0.032755709433757885 		0.5706688337187651  0.164051479604215 		Uiso   ? 		Ti 		2.09986
Ti 1.0  		0.03161967326842527 		0.0702449028897352  0.48804868905105964 		Uiso   ? 		Ti 		2.11066
Ti 1.0  		0.5316649253756777 		0.5701008156360988  0.48804868905105964 		Uiso   ? 		Ti 		2.11066
Ti 1.0  		0.28154762964160707 		0.8202181113701694  0.48804868905105964 		Uiso   ? 		Ti 		2.11066
Ti 1.0  		0.7815928817488595 		0.32017285926291705  0.48804868905105964 		Uiso   ? 		Ti 		2.11066
Ti 1.0  		0.7815928817488595 		0.8202181113701694  0.48804868905105964 		Uiso   ? 		Ti 		2.11066
Ti 1.0  		0.5316649253756777 		0.0702449028897352  0.48804868905105964 		Uiso   ? 		Ti 		2.11066
Ti 1.0  		0.2815476296416071 		0.32017285926291705  0.48804868905105964 		Uiso   ? 		Ti 		2.11066
Ti 1.0  		0.03161967326842524 		0.5701008156360988  0.48804868905105964 		Uiso   ? 		Ti 		2.11066
Ti 1.0  		0.035027781764423206 		0.06835150928084745  0.8107963224835087 		Uiso   ? 		Ti 		2.11651
Ti 1.0  		0.5350730338716757 		0.5682074220272111  0.8107963224835087 		Uiso   ? 		Ti 		2.11651
Ti 1.0  		0.28514507749849377 		0.8183247177612817  0.8107963224835087 		Uiso   ? 		Ti 		2.11651
Ti 1.0  		0.7850009902448575 		0.3182794656540293  0.8107963224835087 		Uiso   ? 		Ti 		2.11651
Ti 1.0  		0.7850009902448575 		0.8183247177612817  0.8107963224835087 		Uiso   ? 		Ti 		2.11651
Ti 1.0  		0.5350730338716757 		0.06835150928084745  0.8107963224835087 		Uiso   ? 		Ti 		2.11651
Ti 1.0  		0.2851450774984938 		0.3182794656540293  0.8107963224835087 		Uiso   ? 		Ti 		2.11651
Ti 1.0  		0.03502778176442318 		0.5682074220272111  0.8107963224835087 		Uiso   ? 		Ti 		2.11651
Ti 1.0  		0.9300349406856584 		0.28135829028071835  0.3207840139812561 		Uiso   ? 		Ti 		2.10446
Ti 1.0  		0.4299896885784059 		0.7812142030270821  0.3207840139812561 		Uiso   ? 		Ti 		2.10446
Ti 1.0  		0.18006173220522417 		0.03124099454664773  0.3207840139812561 		Uiso   ? 		Ti 		2.10446
Ti 1.0  		0.6799176449515879 		0.5312862466539001  0.3207840139812561 		Uiso   ? 		Ti 		2.10446
Ti 1.0  		0.6799176449515879 		0.03124099454664773  0.3207840139812561 		Uiso   ? 		Ti 		2.10446
Ti 1.0  		0.42998968857840597 		0.28135829028071835  0.3207840139812561 		Uiso   ? 		Ti 		2.10446
Ti 1.0  		0.18006173220522415 		0.5312862466539001  0.3207840139812561 		Uiso   ? 		Ti 		2.10446
Ti 1.0  		0.9300349406856584 		0.7812142030270821  0.3207840139812561 		Uiso   ? 		Ti 		2.10446
Ti 1.0  		0.9300349406856584 		0.28135829028071835  0.6442456908505027 		Uiso   ? 		Ti 		2.10606
Ti 1.0  		0.4301790279392947 		0.7814035423879707  0.6442456908505027 		Uiso   ? 		Ti 		2.10606
Ti 1.0  		0.18006173220522417 		0.0314303339075365  0.6442456908505027 		Uiso   ? 		Ti 		2.10606
Ti 1.0  		0.6801069843124766 		0.531475586014789  0.6442456908505027 		Uiso   ? 		Ti 		2.10606
Ti 1.0  		0.6801069843124766 		0.0314303339075365  0.6442456908505027 		Uiso   ? 		Ti 		2.10606
Ti 1.0  		0.43017902793929474 		0.28135829028071835  0.6442456908505027 		Uiso   ? 		Ti 		2.10606
Ti 1.0  		0.18006173220522415 		0.531475586014789  0.6442456908505027 		Uiso   ? 		Ti 		2.10606
Ti 1.0  		0.9300349406856584 		0.7814035423879707  0.6442456908505027 		Uiso   ? 		Ti 		2.10606
Ti 1.0  		0.03143033390753648 		0.32036219862380577  0.32631785061643637 		Uiso   ? 		Ti 		2.11492
Ti 1.0  		0.531475586014789 		0.8204074507310583  0.32631785061643637 		Uiso   ? 		Ti 		2.11492
Ti 1.0  		0.2815476296416071 		0.07043424225062397  0.32631785061643637 		Uiso   ? 		Ti 		2.11492
Ti 1.0  		0.7814035423879707 		0.5702901549969877  0.32631785061643637 		Uiso   ? 		Ti 		2.11492
Ti 1.0  		0.7814035423879707 		0.07043424225062397  0.32631785061643637 		Uiso   ? 		Ti 		2.11492
Ti 1.0  		0.531475586014789 		0.32036219862380577  0.32631785061643637 		Uiso   ? 		Ti 		2.11492
Ti 1.0  		0.28154762964160707 		0.5702901549969877  0.32631785061643637 		Uiso   ? 		Ti 		2.11492
Ti 1.0  		0.031430333907536454 		0.8204074507310583  0.32631785061643637 		Uiso   ? 		Ti 		2.11492
Ti 1.0  		0.03143033390753648 		0.32017285926291705  0.650315060063281 		Uiso   ? 		Ti 		2.11418
Ti 1.0  		0.531475586014789 		0.8200287720092808  0.650315060063281 		Uiso   ? 		Ti 		2.11418
Ti 1.0  		0.2815476296416071 		0.07005556352884643  0.650315060063281 		Uiso   ? 		Ti 		2.11418
Ti 1.0  		0.7814035423879707 		0.5701008156360988  0.650315060063281 		Uiso   ? 		Ti 		2.11418
Ti 1.0  		0.7814035423879707 		0.07005556352884643  0.650315060063281 		Uiso   ? 		Ti 		2.11418
Ti 1.0  		0.531475586014789 		0.32017285926291705  0.650315060063281 		Uiso   ? 		Ti 		2.11418
Ti 1.0  		0.28154762964160707 		0.5701008156360988  0.650315060063281 		Uiso   ? 		Ti 		2.11418
Ti 1.0  		0.031430333907536454 		0.8200287720092808  0.650315060063281 		Uiso   ? 		Ti 		2.11418
