           1 NEW SYSTEM
_cell_length_a  52.815201
_cell_length_b  52.815201
_cell_length_c  35.0
_cell_angle_alpha 90.0
_cell_angle_beta  90.0
_cell_angle_gamma 90.0
_space_group_name_H-M_alt    'P 1'
space_group_IT_number      1  
 
loop_ 
    _atom_site_label 
    _atom_site_occupancy 
    _atom_site_fract_x 
    _atom_site_fract_y 
    _atom_site_fract_z 
    _atom_site_adp_type 
    _atom_site_U_iso_or_equiv 
    _atom_site_type_symbol 
   _atom_site_charge
H 1.0  		0.4701298022135711 		0.01325376003018525  0.42314285714285715 		Uiso   ? 		H 		0.332346
H 1.0  		0.4701298022135711 		0.01325376003018525  0.9231428571428572 		Uiso   ? 		H 		0.332346
H 1.0  		0.9701752342095602 		0.01325376003018525  0.42314285714285715 		Uiso   ? 		H 		0.332346
H 1.0  		0.9701752342095602 		0.01325376003018525  0.9231428571428572 		Uiso   ? 		H 		0.332346
H 1.0  		0.07005558873097917 		0.21319619705697984  0.42314285714285715 		Uiso   ? 		H 		0.334886
H 1.0  		0.07005558873097917 		0.21319619705697984  0.9231428571428572 		Uiso   ? 		H 		0.334886
H 1.0  		0.5701010207269684 		0.21319619705697984  0.42314285714285715 		Uiso   ? 		H 		0.334886
H 1.0  		0.5701010207269684 		0.21319619705697984  0.9231428571428572 		Uiso   ? 		H 		0.334886
H 1.0  		0.17002680724437647 		0.4131386340837745  0.42314285714285715 		Uiso   ? 		H 		0.334796
H 1.0  		0.17002680724437647 		0.4131386340837745  0.9231428571428572 		Uiso   ? 		H 		0.334796
H 1.0  		0.6700722392403657 		0.4131386340837745  0.42314285714285715 		Uiso   ? 		H 		0.334796
H 1.0  		0.6700722392403657 		0.4131386340837745  0.9231428571428572 		Uiso   ? 		H 		0.334796
H 1.0  		0.2699980257577737 		0.6130810711105691  0.42314285714285715 		Uiso   ? 		H 		0.331375
H 1.0  		0.2699980257577737 		0.6130810711105691  0.9231428571428572 		Uiso   ? 		H 		0.331375
H 1.0  		0.770043457753763 		0.6130810711105691  0.42314285714285715 		Uiso   ? 		H 		0.331375
H 1.0  		0.770043457753763 		0.6130810711105691  0.9231428571428572 		Uiso   ? 		H 		0.331375
H 1.0  		0.36996924427117106 		0.8132128475663664  0.42314285714285715 		Uiso   ? 		H 		0.333952
H 1.0  		0.36996924427117106 		0.8132128475663664  0.9231428571428572 		Uiso   ? 		H 		0.333952
H 1.0  		0.8700146762671602 		0.8132128475663664  0.42314285714285715 		Uiso   ? 		H 		0.333952
H 1.0  		0.8700146762671602 		0.8132128475663664  0.9231428571428572 		Uiso   ? 		H 		0.333952
H 1.0  		0.3339947527606683 		0.10300064937743966  0.42314285714285715 		Uiso   ? 		H 		0.302214
H 1.0  		0.3339947527606683 		0.10300064937743966  0.9231428571428572 		Uiso   ? 		H 		0.302214
H 1.0  		0.8340401847566575 		0.10300064937743966  0.42314285714285715 		Uiso   ? 		H 		0.302214
H 1.0  		0.8340401847566575 		0.10300064937743966  0.9231428571428572 		Uiso   ? 		H 		0.302214
H 1.0  		0.43396597127406555 		0.3029430864042343  0.42314285714285715 		Uiso   ? 		H 		0.302573
H 1.0  		0.43396597127406555 		0.3029430864042343  0.9231428571428572 		Uiso   ? 		H 		0.302573
H 1.0  		0.9340114032700547 		0.3029430864042343  0.42314285714285715 		Uiso   ? 		H 		0.302573
H 1.0  		0.9340114032700547 		0.3029430864042343  0.9231428571428572 		Uiso   ? 		H 		0.302573
H 1.0  		0.03389175779147368 		0.5028855234310289  0.42314285714285715 		Uiso   ? 		H 		0.302777
H 1.0  		0.03389175779147368 		0.5028855234310289  0.9231428571428572 		Uiso   ? 		H 		0.302777
H 1.0  		0.5339371897874629 		0.5028855234310289  0.42314285714285715 		Uiso   ? 		H 		0.302777
H 1.0  		0.5339371897874629 		0.5028855234310289  0.9231428571428572 		Uiso   ? 		H 		0.302777
H 1.0  		0.1340523157338736 		0.7030172998868262  0.42314285714285715 		Uiso   ? 		H 		0.303538
H 1.0  		0.1340523157338736 		0.7030172998868262  0.9231428571428572 		Uiso   ? 		H 		0.303538
H 1.0  		0.6340977477298629 		0.7030172998868262  0.42314285714285715 		Uiso   ? 		H 		0.303538
H 1.0  		0.6340977477298629 		0.7030172998868262  0.9231428571428572 		Uiso   ? 		H 		0.303538
H 1.0  		0.23402353424727093 		0.9029597369136209  0.42314285714285715 		Uiso   ? 		H 		0.303584
H 1.0  		0.23402353424727093 		0.9029597369136209  0.9231428571428572 		Uiso   ? 		H 		0.303584
H 1.0  		0.7340689662432601 		0.9029597369136209  0.42314285714285715 		Uiso   ? 		H 		0.303584
H 1.0  		0.7340689662432601 		0.9029597369136209  0.9231428571428572 		Uiso   ? 		H 		0.303584
H 1.0  		0.43036852212301535 		0.15809842321720977  0.42314285714285715 		Uiso   ? 		H 		0.334498
H 1.0  		0.43036852212301535 		0.15809842321720977  0.9231428571428572 		Uiso   ? 		H 		0.334498
H 1.0  		0.9304139541190045 		0.15809842321720977  0.42314285714285715 		Uiso   ? 		H 		0.334498
H 1.0  		0.9304139541190045 		0.15809842321720977  0.9231428571428572 		Uiso   ? 		H 		0.334498
H 1.0  		0.030483648069426054 		0.3580408602440044  0.42314285714285715 		Uiso   ? 		H 		0.336234
H 1.0  		0.030483648069426054 		0.3580408602440044  0.9231428571428572 		Uiso   ? 		H 		0.336234
H 1.0  		0.5305290800654153 		0.3580408602440044  0.42314285714285715 		Uiso   ? 		H 		0.336234
H 1.0  		0.5305290800654153 		0.3580408602440044  0.9231428571428572 		Uiso   ? 		H 		0.336234
H 1.0  		0.13045486658282335 		0.557983297270799  0.42314285714285715 		Uiso   ? 		H 		0.332132
H 1.0  		0.13045486658282335 		0.557983297270799  0.9231428571428572 		Uiso   ? 		H 		0.332132
H 1.0  		0.6305002985788126 		0.557983297270799  0.42314285714285715 		Uiso   ? 		H 		0.332132
H 1.0  		0.6305002985788126 		0.557983297270799  0.9231428571428572 		Uiso   ? 		H 		0.332132
H 1.0  		0.23042608509622065 		0.7581150737265961  0.42314285714285715 		Uiso   ? 		H 		0.333557
H 1.0  		0.23042608509622065 		0.7581150737265961  0.9231428571428572 		Uiso   ? 		H 		0.333557
H 1.0  		0.7304715170922099 		0.7581150737265961  0.42314285714285715 		Uiso   ? 		H 		0.333557
H 1.0  		0.7304715170922099 		0.7581150737265961  0.9231428571428572 		Uiso   ? 		H 		0.333557
H 1.0  		0.330397303609618 		0.9580575107533909  0.42314285714285715 		Uiso   ? 		H 		0.333232
H 1.0  		0.330397303609618 		0.9580575107533909  0.9231428571428572 		Uiso   ? 		H 		0.333232
H 1.0  		0.8304427356056071 		0.9580575107533909  0.42314285714285715 		Uiso   ? 		H 		0.333232
H 1.0  		0.8304427356056071 		0.9580575107533909  0.9231428571428572 		Uiso   ? 		H 		0.333232
H 1.0  		0.2202017559300778 		0.01325376003018525  0.42314285714285715 		Uiso   ? 		H 		0.335001
H 1.0  		0.2202017559300778 		0.01325376003018525  0.9231428571428572 		Uiso   ? 		H 		0.335001
H 1.0  		0.720247187926067 		0.01325376003018525  0.42314285714285715 		Uiso   ? 		H 		0.335001
H 1.0  		0.720247187926067 		0.01325376003018525  0.9231428571428572 		Uiso   ? 		H 		0.335001
H 1.0  		0.3201729744434751 		0.21338553648598252  0.42314285714285715 		Uiso   ? 		H 		0.335096
H 1.0  		0.3201729744434751 		0.21338553648598252  0.9231428571428572 		Uiso   ? 		H 		0.335096
H 1.0  		0.8202184064394643 		0.21338553648598252  0.42314285714285715 		Uiso   ? 		H 		0.335096
H 1.0  		0.8202184064394643 		0.21338553648598252  0.9231428571428572 		Uiso   ? 		H 		0.335096
H 1.0  		0.4201441929568724 		0.4133279735127771  0.42314285714285715 		Uiso   ? 		H 		0.333486
H 1.0  		0.4201441929568724 		0.4133279735127771  0.9231428571428572 		Uiso   ? 		H 		0.333486
H 1.0  		0.9201896249528617 		0.4133279735127771  0.42314285714285715 		Uiso   ? 		H 		0.333486
H 1.0  		0.9201896249528617 		0.4133279735127771  0.9231428571428572 		Uiso   ? 		H 		0.333486
H 1.0  		0.020259318903283127 		0.6132704105395718  0.42314285714285715 		Uiso   ? 		H 		0.335167
H 1.0  		0.020259318903283127 		0.6132704105395718  0.9231428571428572 		Uiso   ? 		H 		0.335167
H 1.0  		0.5203047508992724 		0.6132704105395718  0.42314285714285715 		Uiso   ? 		H 		0.335167
H 1.0  		0.5203047508992724 		0.6132704105395718  0.9231428571428572 		Uiso   ? 		H 		0.335167
H 1.0  		0.12023053741668042 		0.813402186995369  0.42314285714285715 		Uiso   ? 		H 		0.335266
H 1.0  		0.12023053741668042 		0.813402186995369  0.9231428571428572 		Uiso   ? 		H 		0.335266
H 1.0  		0.6202759694126696 		0.813402186995369  0.42314285714285715 		Uiso   ? 		H 		0.335266
H 1.0  		0.6202759694126696 		0.813402186995369  0.9231428571428572 		Uiso   ? 		H 		0.335266
H 1.0  		0.08387736704817236 		0.10300064937743966  0.42314285714285715 		Uiso   ? 		H 		0.303247
H 1.0  		0.08387736704817236 		0.10300064937743966  0.9231428571428572 		Uiso   ? 		H 		0.303247
H 1.0  		0.5839227990441616 		0.10300064937743966  0.42314285714285715 		Uiso   ? 		H 		0.303247
H 1.0  		0.5839227990441616 		0.10300064937743966  0.9231428571428572 		Uiso   ? 		H 		0.303247
H 1.0  		0.18384858556156963 		0.3029430864042343  0.42314285714285715 		Uiso   ? 		H 		0.302613
H 1.0  		0.18384858556156963 		0.3029430864042343  0.9231428571428572 		Uiso   ? 		H 		0.302613
H 1.0  		0.6838940175575589 		0.3029430864042343  0.42314285714285715 		Uiso   ? 		H 		0.302613
H 1.0  		0.6838940175575589 		0.3029430864042343  0.9231428571428572 		Uiso   ? 		H 		0.302613
H 1.0  		0.28381980407496693 		0.5030748628600316  0.42314285714285715 		Uiso   ? 		H 		0.302431
H 1.0  		0.28381980407496693 		0.5030748628600316  0.9231428571428572 		Uiso   ? 		H 		0.302431
H 1.0  		0.7838652360709562 		0.5030748628600316  0.42314285714285715 		Uiso   ? 		H 		0.302431
H 1.0  		0.7838652360709562 		0.5030748628600316  0.9231428571428572 		Uiso   ? 		H 		0.302431
H 1.0  		0.3837910225883643 		0.7030172998868262  0.42314285714285715 		Uiso   ? 		H 		0.303751
H 1.0  		0.3837910225883643 		0.7030172998868262  0.9231428571428572 		Uiso   ? 		H 		0.303751
H 1.0  		0.8838364545843536 		0.7030172998868262  0.42314285714285715 		Uiso   ? 		H 		0.303751
H 1.0  		0.8838364545843536 		0.7030172998868262  0.9231428571428572 		Uiso   ? 		H 		0.303751
H 1.0  		0.4839515805307642 		0.9029597369136209  0.42314285714285715 		Uiso   ? 		H 		0.302833
H 1.0  		0.4839515805307642 		0.9029597369136209  0.9231428571428572 		Uiso   ? 		H 		0.302833
H 1.0  		0.9839970125267534 		0.9029597369136209  0.42314285714285715 		Uiso   ? 		H 		0.302833
H 1.0  		0.9839970125267534 		0.9029597369136209  0.9231428571428572 		Uiso   ? 		H 		0.302833
H 1.0  		0.18044047583952202 		0.15809842321720977  0.42314285714285715 		Uiso   ? 		H 		0.334045
H 1.0  		0.18044047583952202 		0.15809842321720977  0.9231428571428572 		Uiso   ? 		H 		0.334045
H 1.0  		0.6804859078355112 		0.15809842321720977  0.42314285714285715 		Uiso   ? 		H 		0.334045
H 1.0  		0.6804859078355112 		0.15809842321720977  0.9231428571428572 		Uiso   ? 		H 		0.334045
H 1.0  		0.28041169435291935 		0.3580408602440044  0.42314285714285715 		Uiso   ? 		H 		0.334590
H 1.0  		0.28041169435291935 		0.3580408602440044  0.9231428571428572 		Uiso   ? 		H 		0.334590
H 1.0  		0.7804571263489085 		0.3580408602440044  0.42314285714285715 		Uiso   ? 		H 		0.334590
H 1.0  		0.7804571263489085 		0.3580408602440044  0.9231428571428572 		Uiso   ? 		H 		0.334590
H 1.0  		0.3805722522953192 		0.557983297270799  0.42314285714285715 		Uiso   ? 		H 		0.335092
H 1.0  		0.3805722522953192 		0.557983297270799  0.9231428571428572 		Uiso   ? 		H 		0.335092
H 1.0  		0.8806176842913085 		0.557983297270799  0.42314285714285715 		Uiso   ? 		H 		0.335092
H 1.0  		0.8806176842913085 		0.557983297270799  0.9231428571428572 		Uiso   ? 		H 		0.335092
H 1.0  		0.4805434708087165 		0.7581150737265961  0.42314285714285715 		Uiso   ? 		H 		0.334568
H 1.0  		0.4805434708087165 		0.7581150737265961  0.9231428571428572 		Uiso   ? 		H 		0.334568
H 1.0  		0.9805889028047059 		0.7581150737265961  0.42314285714285715 		Uiso   ? 		H 		0.334568
H 1.0  		0.9805889028047059 		0.7581150737265961  0.9231428571428572 		Uiso   ? 		H 		0.334568
H 1.0  		0.08046925732612467 		0.9580575107533909  0.42314285714285715 		Uiso   ? 		H 		0.335469
H 1.0  		0.08046925732612467 		0.9580575107533909  0.9231428571428572 		Uiso   ? 		H 		0.335469
H 1.0  		0.5805146893221138 		0.9580575107533909  0.42314285714285715 		Uiso   ? 		H 		0.335469
H 1.0  		0.5805146893221138 		0.9580575107533909  0.9231428571428572 		Uiso   ? 		H 		0.335469
H 1.0  		0.4701298022135711 		0.01325376003018525  0.023142857142857142 		Uiso   ? 		H 		0.333203
H 1.0  		0.4701298022135711 		0.01325376003018525  0.5231428571428571 		Uiso   ? 		H 		0.333203
H 1.0  		0.9701752342095602 		0.01325376003018525  0.023142857142857142 		Uiso   ? 		H 		0.333203
H 1.0  		0.9701752342095602 		0.01325376003018525  0.5231428571428571 		Uiso   ? 		H 		0.333203
H 1.0  		0.07005558873097917 		0.21319619705697984  0.023142857142857142 		Uiso   ? 		H 		0.334381
H 1.0  		0.07005558873097917 		0.21319619705697984  0.5231428571428571 		Uiso   ? 		H 		0.334381
H 1.0  		0.5701010207269684 		0.21319619705697984  0.023142857142857142 		Uiso   ? 		H 		0.334381
H 1.0  		0.5701010207269684 		0.21319619705697984  0.5231428571428571 		Uiso   ? 		H 		0.334381
H 1.0  		0.17002680724437647 		0.4131386340837745  0.023142857142857142 		Uiso   ? 		H 		0.335673
H 1.0  		0.17002680724437647 		0.4131386340837745  0.5231428571428571 		Uiso   ? 		H 		0.335673
H 1.0  		0.6700722392403657 		0.4131386340837745  0.023142857142857142 		Uiso   ? 		H 		0.335673
H 1.0  		0.6700722392403657 		0.4131386340837745  0.5231428571428571 		Uiso   ? 		H 		0.335673
H 1.0  		0.2699980257577737 		0.6130810711105691  0.023142857142857142 		Uiso   ? 		H 		0.332268
H 1.0  		0.2699980257577737 		0.6130810711105691  0.5231428571428571 		Uiso   ? 		H 		0.332268
H 1.0  		0.770043457753763 		0.6130810711105691  0.023142857142857142 		Uiso   ? 		H 		0.332268
H 1.0  		0.770043457753763 		0.6130810711105691  0.5231428571428571 		Uiso   ? 		H 		0.332268
H 1.0  		0.36996924427117106 		0.8132128475663664  0.023142857142857142 		Uiso   ? 		H 		0.334748
H 1.0  		0.36996924427117106 		0.8132128475663664  0.5231428571428571 		Uiso   ? 		H 		0.334748
H 1.0  		0.8700146762671602 		0.8132128475663664  0.023142857142857142 		Uiso   ? 		H 		0.334748
H 1.0  		0.8700146762671602 		0.8132128475663664  0.5231428571428571 		Uiso   ? 		H 		0.334748
H 1.0  		0.3339947527606683 		0.10300064937743966  0.023142857142857142 		Uiso   ? 		H 		0.300684
H 1.0  		0.3339947527606683 		0.10300064937743966  0.5231428571428571 		Uiso   ? 		H 		0.300684
H 1.0  		0.8340401847566575 		0.10300064937743966  0.023142857142857142 		Uiso   ? 		H 		0.300684
H 1.0  		0.8340401847566575 		0.10300064937743966  0.5231428571428571 		Uiso   ? 		H 		0.300684
H 1.0  		0.43396597127406555 		0.3029430864042343  0.023142857142857142 		Uiso   ? 		H 		0.302366
H 1.0  		0.43396597127406555 		0.3029430864042343  0.5231428571428571 		Uiso   ? 		H 		0.302366
H 1.0  		0.9340114032700547 		0.3029430864042343  0.023142857142857142 		Uiso   ? 		H 		0.302366
H 1.0  		0.9340114032700547 		0.3029430864042343  0.5231428571428571 		Uiso   ? 		H 		0.302366
H 1.0  		0.03389175779147368 		0.5028855234310289  0.023142857142857142 		Uiso   ? 		H 		0.302569
H 1.0  		0.03389175779147368 		0.5028855234310289  0.5231428571428571 		Uiso   ? 		H 		0.302569
H 1.0  		0.5339371897874629 		0.5028855234310289  0.023142857142857142 		Uiso   ? 		H 		0.302569
H 1.0  		0.5339371897874629 		0.5028855234310289  0.5231428571428571 		Uiso   ? 		H 		0.302569
H 1.0  		0.1340523157338736 		0.7030172998868262  0.023142857142857142 		Uiso   ? 		H 		0.302344
H 1.0  		0.1340523157338736 		0.7030172998868262  0.5231428571428571 		Uiso   ? 		H 		0.302344
H 1.0  		0.6340977477298629 		0.7030172998868262  0.023142857142857142 		Uiso   ? 		H 		0.302344
H 1.0  		0.6340977477298629 		0.7030172998868262  0.5231428571428571 		Uiso   ? 		H 		0.302344
H 1.0  		0.23402353424727093 		0.9029597369136209  0.023142857142857142 		Uiso   ? 		H 		0.302296
H 1.0  		0.23402353424727093 		0.9029597369136209  0.5231428571428571 		Uiso   ? 		H 		0.302296
H 1.0  		0.7340689662432601 		0.9029597369136209  0.023142857142857142 		Uiso   ? 		H 		0.302296
H 1.0  		0.7340689662432601 		0.9029597369136209  0.5231428571428571 		Uiso   ? 		H 		0.302296
H 1.0  		0.43036852212301535 		0.15809842321720977  0.023142857142857142 		Uiso   ? 		H 		0.334818
H 1.0  		0.43036852212301535 		0.15809842321720977  0.5231428571428571 		Uiso   ? 		H 		0.334818
H 1.0  		0.9304139541190045 		0.15809842321720977  0.023142857142857142 		Uiso   ? 		H 		0.334818
H 1.0  		0.9304139541190045 		0.15809842321720977  0.5231428571428571 		Uiso   ? 		H 		0.334818
H 1.0  		0.030483648069426054 		0.3580408602440044  0.023142857142857142 		Uiso   ? 		H 		0.336256
H 1.0  		0.030483648069426054 		0.3580408602440044  0.5231428571428571 		Uiso   ? 		H 		0.336256
H 1.0  		0.5305290800654153 		0.3580408602440044  0.023142857142857142 		Uiso   ? 		H 		0.336256
H 1.0  		0.5305290800654153 		0.3580408602440044  0.5231428571428571 		Uiso   ? 		H 		0.336256
H 1.0  		0.13045486658282335 		0.557983297270799  0.023142857142857142 		Uiso   ? 		H 		0.331097
H 1.0  		0.13045486658282335 		0.557983297270799  0.5231428571428571 		Uiso   ? 		H 		0.331097
H 1.0  		0.6305002985788126 		0.557983297270799  0.023142857142857142 		Uiso   ? 		H 		0.331097
H 1.0  		0.6305002985788126 		0.557983297270799  0.5231428571428571 		Uiso   ? 		H 		0.331097
H 1.0  		0.23042608509622065 		0.7581150737265961  0.023142857142857142 		Uiso   ? 		H 		0.334016
H 1.0  		0.23042608509622065 		0.7581150737265961  0.5231428571428571 		Uiso   ? 		H 		0.334016
H 1.0  		0.7304715170922099 		0.7581150737265961  0.023142857142857142 		Uiso   ? 		H 		0.334016
H 1.0  		0.7304715170922099 		0.7581150737265961  0.5231428571428571 		Uiso   ? 		H 		0.334016
H 1.0  		0.330397303609618 		0.9580575107533909  0.023142857142857142 		Uiso   ? 		H 		0.334505
H 1.0  		0.330397303609618 		0.9580575107533909  0.5231428571428571 		Uiso   ? 		H 		0.334505
H 1.0  		0.8304427356056071 		0.9580575107533909  0.023142857142857142 		Uiso   ? 		H 		0.334505
H 1.0  		0.8304427356056071 		0.9580575107533909  0.5231428571428571 		Uiso   ? 		H 		0.334505
H 1.0  		0.2202017559300778 		0.01325376003018525  0.023142857142857142 		Uiso   ? 		H 		0.335527
H 1.0  		0.2202017559300778 		0.01325376003018525  0.5231428571428571 		Uiso   ? 		H 		0.335527
H 1.0  		0.720247187926067 		0.01325376003018525  0.023142857142857142 		Uiso   ? 		H 		0.335527
H 1.0  		0.720247187926067 		0.01325376003018525  0.5231428571428571 		Uiso   ? 		H 		0.335527
H 1.0  		0.3201729744434751 		0.21338553648598252  0.023142857142857142 		Uiso   ? 		H 		0.335624
H 1.0  		0.3201729744434751 		0.21338553648598252  0.5231428571428571 		Uiso   ? 		H 		0.335624
H 1.0  		0.8202184064394643 		0.21338553648598252  0.023142857142857142 		Uiso   ? 		H 		0.335624
H 1.0  		0.8202184064394643 		0.21338553648598252  0.5231428571428571 		Uiso   ? 		H 		0.335624
H 1.0  		0.4201441929568724 		0.4133279735127771  0.023142857142857142 		Uiso   ? 		H 		0.333386
H 1.0  		0.4201441929568724 		0.4133279735127771  0.5231428571428571 		Uiso   ? 		H 		0.333386
H 1.0  		0.9201896249528617 		0.4133279735127771  0.023142857142857142 		Uiso   ? 		H 		0.333386
H 1.0  		0.9201896249528617 		0.4133279735127771  0.5231428571428571 		Uiso   ? 		H 		0.333386
H 1.0  		0.020259318903283127 		0.6132704105395718  0.023142857142857142 		Uiso   ? 		H 		0.334018
H 1.0  		0.020259318903283127 		0.6132704105395718  0.5231428571428571 		Uiso   ? 		H 		0.334018
H 1.0  		0.5203047508992724 		0.6132704105395718  0.023142857142857142 		Uiso   ? 		H 		0.334018
H 1.0  		0.5203047508992724 		0.6132704105395718  0.5231428571428571 		Uiso   ? 		H 		0.334018
H 1.0  		0.12023053741668042 		0.813402186995369  0.023142857142857142 		Uiso   ? 		H 		0.335534
H 1.0  		0.12023053741668042 		0.813402186995369  0.5231428571428571 		Uiso   ? 		H 		0.335534
H 1.0  		0.6202759694126696 		0.813402186995369  0.023142857142857142 		Uiso   ? 		H 		0.335534
H 1.0  		0.6202759694126696 		0.813402186995369  0.5231428571428571 		Uiso   ? 		H 		0.335534
H 1.0  		0.08387736704817236 		0.10300064937743966  0.023142857142857142 		Uiso   ? 		H 		0.302282
H 1.0  		0.08387736704817236 		0.10300064937743966  0.5231428571428571 		Uiso   ? 		H 		0.302282
H 1.0  		0.5839227990441616 		0.10300064937743966  0.023142857142857142 		Uiso   ? 		H 		0.302282
H 1.0  		0.5839227990441616 		0.10300064937743966  0.5231428571428571 		Uiso   ? 		H 		0.302282
H 1.0  		0.18384858556156963 		0.3029430864042343  0.023142857142857142 		Uiso   ? 		H 		0.301227
H 1.0  		0.18384858556156963 		0.3029430864042343  0.5231428571428571 		Uiso   ? 		H 		0.301227
H 1.0  		0.6838940175575589 		0.3029430864042343  0.023142857142857142 		Uiso   ? 		H 		0.301227
H 1.0  		0.6838940175575589 		0.3029430864042343  0.5231428571428571 		Uiso   ? 		H 		0.301227
H 1.0  		0.28381980407496693 		0.5030748628600316  0.023142857142857142 		Uiso   ? 		H 		0.301132
H 1.0  		0.28381980407496693 		0.5030748628600316  0.5231428571428571 		Uiso   ? 		H 		0.301132
H 1.0  		0.7838652360709562 		0.5030748628600316  0.023142857142857142 		Uiso   ? 		H 		0.301132
H 1.0  		0.7838652360709562 		0.5030748628600316  0.5231428571428571 		Uiso   ? 		H 		0.301132
H 1.0  		0.3837910225883643 		0.7030172998868262  0.023142857142857142 		Uiso   ? 		H 		0.301484
H 1.0  		0.3837910225883643 		0.7030172998868262  0.5231428571428571 		Uiso   ? 		H 		0.301484
H 1.0  		0.8838364545843536 		0.7030172998868262  0.023142857142857142 		Uiso   ? 		H 		0.301484
H 1.0  		0.8838364545843536 		0.7030172998868262  0.5231428571428571 		Uiso   ? 		H 		0.301484
H 1.0  		0.4839515805307642 		0.9029597369136209  0.023142857142857142 		Uiso   ? 		H 		0.302052
H 1.0  		0.4839515805307642 		0.9029597369136209  0.5231428571428571 		Uiso   ? 		H 		0.302052
H 1.0  		0.9839970125267534 		0.9029597369136209  0.023142857142857142 		Uiso   ? 		H 		0.302052
H 1.0  		0.9839970125267534 		0.9029597369136209  0.5231428571428571 		Uiso   ? 		H 		0.302052
H 1.0  		0.18044047583952202 		0.15809842321720977  0.023142857142857142 		Uiso   ? 		H 		0.334734
H 1.0  		0.18044047583952202 		0.15809842321720977  0.5231428571428571 		Uiso   ? 		H 		0.334734
H 1.0  		0.6804859078355112 		0.15809842321720977  0.023142857142857142 		Uiso   ? 		H 		0.334734
H 1.0  		0.6804859078355112 		0.15809842321720977  0.5231428571428571 		Uiso   ? 		H 		0.334734
H 1.0  		0.28041169435291935 		0.3580408602440044  0.023142857142857142 		Uiso   ? 		H 		0.335053
H 1.0  		0.28041169435291935 		0.3580408602440044  0.5231428571428571 		Uiso   ? 		H 		0.335053
H 1.0  		0.7804571263489085 		0.3580408602440044  0.023142857142857142 		Uiso   ? 		H 		0.335053
H 1.0  		0.7804571263489085 		0.3580408602440044  0.5231428571428571 		Uiso   ? 		H 		0.335053
H 1.0  		0.3805722522953192 		0.557983297270799  0.023142857142857142 		Uiso   ? 		H 		0.335184
H 1.0  		0.3805722522953192 		0.557983297270799  0.5231428571428571 		Uiso   ? 		H 		0.335184
H 1.0  		0.8806176842913085 		0.557983297270799  0.023142857142857142 		Uiso   ? 		H 		0.335184
H 1.0  		0.8806176842913085 		0.557983297270799  0.5231428571428571 		Uiso   ? 		H 		0.335184
H 1.0  		0.4805434708087165 		0.7581150737265961  0.023142857142857142 		Uiso   ? 		H 		0.333413
H 1.0  		0.4805434708087165 		0.7581150737265961  0.5231428571428571 		Uiso   ? 		H 		0.333413
H 1.0  		0.9805889028047059 		0.7581150737265961  0.023142857142857142 		Uiso   ? 		H 		0.333413
H 1.0  		0.9805889028047059 		0.7581150737265961  0.5231428571428571 		Uiso   ? 		H 		0.333413
H 1.0  		0.08046925732612467 		0.9580575107533909  0.023142857142857142 		Uiso   ? 		H 		0.334919
H 1.0  		0.08046925732612467 		0.9580575107533909  0.5231428571428571 		Uiso   ? 		H 		0.334919
H 1.0  		0.5805146893221138 		0.9580575107533909  0.023142857142857142 		Uiso   ? 		H 		0.334919
H 1.0  		0.5805146893221138 		0.9580575107533909  0.5231428571428571 		Uiso   ? 		H 		0.334919
H 1.0  		0.4701298022135711 		0.01325376003018525  0.12314285714285714 		Uiso   ? 		H 		0.332408
H 1.0  		0.4701298022135711 		0.01325376003018525  0.6231428571428571 		Uiso   ? 		H 		0.332408
H 1.0  		0.9701752342095602 		0.01325376003018525  0.12314285714285714 		Uiso   ? 		H 		0.332408
H 1.0  		0.9701752342095602 		0.01325376003018525  0.6231428571428571 		Uiso   ? 		H 		0.332408
H 1.0  		0.07005558873097917 		0.21319619705697984  0.12314285714285714 		Uiso   ? 		H 		0.334718
H 1.0  		0.07005558873097917 		0.21319619705697984  0.6231428571428571 		Uiso   ? 		H 		0.334718
H 1.0  		0.5701010207269684 		0.21319619705697984  0.12314285714285714 		Uiso   ? 		H 		0.334718
H 1.0  		0.5701010207269684 		0.21319619705697984  0.6231428571428571 		Uiso   ? 		H 		0.334718
H 1.0  		0.17002680724437647 		0.4131386340837745  0.12314285714285714 		Uiso   ? 		H 		0.334937
H 1.0  		0.17002680724437647 		0.4131386340837745  0.6231428571428571 		Uiso   ? 		H 		0.334937
H 1.0  		0.6700722392403657 		0.4131386340837745  0.12314285714285714 		Uiso   ? 		H 		0.334937
H 1.0  		0.6700722392403657 		0.4131386340837745  0.6231428571428571 		Uiso   ? 		H 		0.334937
H 1.0  		0.2699980257577737 		0.6130810711105691  0.12314285714285714 		Uiso   ? 		H 		0.331579
H 1.0  		0.2699980257577737 		0.6130810711105691  0.6231428571428571 		Uiso   ? 		H 		0.331579
H 1.0  		0.770043457753763 		0.6130810711105691  0.12314285714285714 		Uiso   ? 		H 		0.331579
H 1.0  		0.770043457753763 		0.6130810711105691  0.6231428571428571 		Uiso   ? 		H 		0.331579
H 1.0  		0.36996924427117106 		0.8132128475663664  0.12314285714285714 		Uiso   ? 		H 		0.334528
H 1.0  		0.36996924427117106 		0.8132128475663664  0.6231428571428571 		Uiso   ? 		H 		0.334528
H 1.0  		0.8700146762671602 		0.8132128475663664  0.12314285714285714 		Uiso   ? 		H 		0.334528
H 1.0  		0.8700146762671602 		0.8132128475663664  0.6231428571428571 		Uiso   ? 		H 		0.334528
H 1.0  		0.3339947527606683 		0.10300064937743966  0.12314285714285714 		Uiso   ? 		H 		0.302331
H 1.0  		0.3339947527606683 		0.10300064937743966  0.6231428571428571 		Uiso   ? 		H 		0.302331
H 1.0  		0.8340401847566575 		0.10300064937743966  0.12314285714285714 		Uiso   ? 		H 		0.302331
H 1.0  		0.8340401847566575 		0.10300064937743966  0.6231428571428571 		Uiso   ? 		H 		0.302331
H 1.0  		0.43396597127406555 		0.3029430864042343  0.12314285714285714 		Uiso   ? 		H 		0.302870
H 1.0  		0.43396597127406555 		0.3029430864042343  0.6231428571428571 		Uiso   ? 		H 		0.302870
H 1.0  		0.9340114032700547 		0.3029430864042343  0.12314285714285714 		Uiso   ? 		H 		0.302870
H 1.0  		0.9340114032700547 		0.3029430864042343  0.6231428571428571 		Uiso   ? 		H 		0.302870
H 1.0  		0.03389175779147368 		0.5028855234310289  0.12314285714285714 		Uiso   ? 		H 		0.302677
H 1.0  		0.03389175779147368 		0.5028855234310289  0.6231428571428571 		Uiso   ? 		H 		0.302677
H 1.0  		0.5339371897874629 		0.5028855234310289  0.12314285714285714 		Uiso   ? 		H 		0.302677
H 1.0  		0.5339371897874629 		0.5028855234310289  0.6231428571428571 		Uiso   ? 		H 		0.302677
H 1.0  		0.1340523157338736 		0.7030172998868262  0.12314285714285714 		Uiso   ? 		H 		0.303433
H 1.0  		0.1340523157338736 		0.7030172998868262  0.6231428571428571 		Uiso   ? 		H 		0.303433
H 1.0  		0.6340977477298629 		0.7030172998868262  0.12314285714285714 		Uiso   ? 		H 		0.303433
H 1.0  		0.6340977477298629 		0.7030172998868262  0.6231428571428571 		Uiso   ? 		H 		0.303433
H 1.0  		0.23402353424727093 		0.9029597369136209  0.12314285714285714 		Uiso   ? 		H 		0.303590
H 1.0  		0.23402353424727093 		0.9029597369136209  0.6231428571428571 		Uiso   ? 		H 		0.303590
H 1.0  		0.7340689662432601 		0.9029597369136209  0.12314285714285714 		Uiso   ? 		H 		0.303590
H 1.0  		0.7340689662432601 		0.9029597369136209  0.6231428571428571 		Uiso   ? 		H 		0.303590
H 1.0  		0.43036852212301535 		0.15809842321720977  0.12314285714285714 		Uiso   ? 		H 		0.334621
H 1.0  		0.43036852212301535 		0.15809842321720977  0.6231428571428571 		Uiso   ? 		H 		0.334621
H 1.0  		0.9304139541190045 		0.15809842321720977  0.12314285714285714 		Uiso   ? 		H 		0.334621
H 1.0  		0.9304139541190045 		0.15809842321720977  0.6231428571428571 		Uiso   ? 		H 		0.334621
H 1.0  		0.030483648069426054 		0.3580408602440044  0.12314285714285714 		Uiso   ? 		H 		0.335969
H 1.0  		0.030483648069426054 		0.3580408602440044  0.6231428571428571 		Uiso   ? 		H 		0.335969
H 1.0  		0.5305290800654153 		0.3580408602440044  0.12314285714285714 		Uiso   ? 		H 		0.335969
H 1.0  		0.5305290800654153 		0.3580408602440044  0.6231428571428571 		Uiso   ? 		H 		0.335969
H 1.0  		0.13045486658282335 		0.557983297270799  0.12314285714285714 		Uiso   ? 		H 		0.331889
H 1.0  		0.13045486658282335 		0.557983297270799  0.6231428571428571 		Uiso   ? 		H 		0.331889
H 1.0  		0.6305002985788126 		0.557983297270799  0.12314285714285714 		Uiso   ? 		H 		0.331889
H 1.0  		0.6305002985788126 		0.557983297270799  0.6231428571428571 		Uiso   ? 		H 		0.331889
H 1.0  		0.23042608509622065 		0.7581150737265961  0.12314285714285714 		Uiso   ? 		H 		0.333709
H 1.0  		0.23042608509622065 		0.7581150737265961  0.6231428571428571 		Uiso   ? 		H 		0.333709
H 1.0  		0.7304715170922099 		0.7581150737265961  0.12314285714285714 		Uiso   ? 		H 		0.333709
H 1.0  		0.7304715170922099 		0.7581150737265961  0.6231428571428571 		Uiso   ? 		H 		0.333709
H 1.0  		0.330397303609618 		0.9580575107533909  0.12314285714285714 		Uiso   ? 		H 		0.333026
H 1.0  		0.330397303609618 		0.9580575107533909  0.6231428571428571 		Uiso   ? 		H 		0.333026
H 1.0  		0.8304427356056071 		0.9580575107533909  0.12314285714285714 		Uiso   ? 		H 		0.333026
H 1.0  		0.8304427356056071 		0.9580575107533909  0.6231428571428571 		Uiso   ? 		H 		0.333026
H 1.0  		0.2202017559300778 		0.01325376003018525  0.12314285714285714 		Uiso   ? 		H 		0.334904
H 1.0  		0.2202017559300778 		0.01325376003018525  0.6231428571428571 		Uiso   ? 		H 		0.334904
H 1.0  		0.720247187926067 		0.01325376003018525  0.12314285714285714 		Uiso   ? 		H 		0.334904
H 1.0  		0.720247187926067 		0.01325376003018525  0.6231428571428571 		Uiso   ? 		H 		0.334904
H 1.0  		0.3201729744434751 		0.21338553648598252  0.12314285714285714 		Uiso   ? 		H 		0.334963
H 1.0  		0.3201729744434751 		0.21338553648598252  0.6231428571428571 		Uiso   ? 		H 		0.334963
H 1.0  		0.8202184064394643 		0.21338553648598252  0.12314285714285714 		Uiso   ? 		H 		0.334963
H 1.0  		0.8202184064394643 		0.21338553648598252  0.6231428571428571 		Uiso   ? 		H 		0.334963
H 1.0  		0.4201441929568724 		0.4133279735127771  0.12314285714285714 		Uiso   ? 		H 		0.332796
H 1.0  		0.4201441929568724 		0.4133279735127771  0.6231428571428571 		Uiso   ? 		H 		0.332796
H 1.0  		0.9201896249528617 		0.4133279735127771  0.12314285714285714 		Uiso   ? 		H 		0.332796
H 1.0  		0.9201896249528617 		0.4133279735127771  0.6231428571428571 		Uiso   ? 		H 		0.332796
H 1.0  		0.020259318903283127 		0.6132704105395718  0.12314285714285714 		Uiso   ? 		H 		0.334595
H 1.0  		0.020259318903283127 		0.6132704105395718  0.6231428571428571 		Uiso   ? 		H 		0.334595
H 1.0  		0.5203047508992724 		0.6132704105395718  0.12314285714285714 		Uiso   ? 		H 		0.334595
H 1.0  		0.5203047508992724 		0.6132704105395718  0.6231428571428571 		Uiso   ? 		H 		0.334595
H 1.0  		0.12023053741668042 		0.813402186995369  0.12314285714285714 		Uiso   ? 		H 		0.335271
H 1.0  		0.12023053741668042 		0.813402186995369  0.6231428571428571 		Uiso   ? 		H 		0.335271
H 1.0  		0.6202759694126696 		0.813402186995369  0.12314285714285714 		Uiso   ? 		H 		0.335271
H 1.0  		0.6202759694126696 		0.813402186995369  0.6231428571428571 		Uiso   ? 		H 		0.335271
H 1.0  		0.08387736704817236 		0.10300064937743966  0.12314285714285714 		Uiso   ? 		H 		0.303194
H 1.0  		0.08387736704817236 		0.10300064937743966  0.6231428571428571 		Uiso   ? 		H 		0.303194
H 1.0  		0.5839227990441616 		0.10300064937743966  0.12314285714285714 		Uiso   ? 		H 		0.303194
H 1.0  		0.5839227990441616 		0.10300064937743966  0.6231428571428571 		Uiso   ? 		H 		0.303194
H 1.0  		0.18384858556156963 		0.3029430864042343  0.12314285714285714 		Uiso   ? 		H 		0.302400
H 1.0  		0.18384858556156963 		0.3029430864042343  0.6231428571428571 		Uiso   ? 		H 		0.302400
H 1.0  		0.6838940175575589 		0.3029430864042343  0.12314285714285714 		Uiso   ? 		H 		0.302400
H 1.0  		0.6838940175575589 		0.3029430864042343  0.6231428571428571 		Uiso   ? 		H 		0.302400
H 1.0  		0.28381980407496693 		0.5030748628600316  0.12314285714285714 		Uiso   ? 		H 		0.302297
H 1.0  		0.28381980407496693 		0.5030748628600316  0.6231428571428571 		Uiso   ? 		H 		0.302297
H 1.0  		0.7838652360709562 		0.5030748628600316  0.12314285714285714 		Uiso   ? 		H 		0.302297
H 1.0  		0.7838652360709562 		0.5030748628600316  0.6231428571428571 		Uiso   ? 		H 		0.302297
H 1.0  		0.3837910225883643 		0.7030172998868262  0.12314285714285714 		Uiso   ? 		H 		0.303522
H 1.0  		0.3837910225883643 		0.7030172998868262  0.6231428571428571 		Uiso   ? 		H 		0.303522
H 1.0  		0.8838364545843536 		0.7030172998868262  0.12314285714285714 		Uiso   ? 		H 		0.303522
H 1.0  		0.8838364545843536 		0.7030172998868262  0.6231428571428571 		Uiso   ? 		H 		0.303522
H 1.0  		0.4839515805307642 		0.9029597369136209  0.12314285714285714 		Uiso   ? 		H 		0.303133
H 1.0  		0.4839515805307642 		0.9029597369136209  0.6231428571428571 		Uiso   ? 		H 		0.303133
H 1.0  		0.9839970125267534 		0.9029597369136209  0.12314285714285714 		Uiso   ? 		H 		0.303133
H 1.0  		0.9839970125267534 		0.9029597369136209  0.6231428571428571 		Uiso   ? 		H 		0.303133
H 1.0  		0.18044047583952202 		0.15809842321720977  0.12314285714285714 		Uiso   ? 		H 		0.334243
H 1.0  		0.18044047583952202 		0.15809842321720977  0.6231428571428571 		Uiso   ? 		H 		0.334243
H 1.0  		0.6804859078355112 		0.15809842321720977  0.12314285714285714 		Uiso   ? 		H 		0.334243
H 1.0  		0.6804859078355112 		0.15809842321720977  0.6231428571428571 		Uiso   ? 		H 		0.334243
H 1.0  		0.28041169435291935 		0.3580408602440044  0.12314285714285714 		Uiso   ? 		H 		0.333968
H 1.0  		0.28041169435291935 		0.3580408602440044  0.6231428571428571 		Uiso   ? 		H 		0.333968
H 1.0  		0.7804571263489085 		0.3580408602440044  0.12314285714285714 		Uiso   ? 		H 		0.333968
H 1.0  		0.7804571263489085 		0.3580408602440044  0.6231428571428571 		Uiso   ? 		H 		0.333968
H 1.0  		0.3805722522953192 		0.557983297270799  0.12314285714285714 		Uiso   ? 		H 		0.335206
H 1.0  		0.3805722522953192 		0.557983297270799  0.6231428571428571 		Uiso   ? 		H 		0.335206
H 1.0  		0.8806176842913085 		0.557983297270799  0.12314285714285714 		Uiso   ? 		H 		0.335206
H 1.0  		0.8806176842913085 		0.557983297270799  0.6231428571428571 		Uiso   ? 		H 		0.335206
H 1.0  		0.4805434708087165 		0.7581150737265961  0.12314285714285714 		Uiso   ? 		H 		0.334085
H 1.0  		0.4805434708087165 		0.7581150737265961  0.6231428571428571 		Uiso   ? 		H 		0.334085
H 1.0  		0.9805889028047059 		0.7581150737265961  0.12314285714285714 		Uiso   ? 		H 		0.334085
H 1.0  		0.9805889028047059 		0.7581150737265961  0.6231428571428571 		Uiso   ? 		H 		0.334085
H 1.0  		0.08046925732612467 		0.9580575107533909  0.12314285714285714 		Uiso   ? 		H 		0.335808
H 1.0  		0.08046925732612467 		0.9580575107533909  0.6231428571428571 		Uiso   ? 		H 		0.335808
H 1.0  		0.5805146893221138 		0.9580575107533909  0.12314285714285714 		Uiso   ? 		H 		0.335808
H 1.0  		0.5805146893221138 		0.9580575107533909  0.6231428571428571 		Uiso   ? 		H 		0.335808
H 1.0  		0.4701298022135711 		0.01325376003018525  0.22314285714285714 		Uiso   ? 		H 		0.333868
H 1.0  		0.4701298022135711 		0.01325376003018525  0.7231428571428572 		Uiso   ? 		H 		0.333868
H 1.0  		0.9701752342095602 		0.01325376003018525  0.22314285714285714 		Uiso   ? 		H 		0.333868
H 1.0  		0.9701752342095602 		0.01325376003018525  0.7231428571428572 		Uiso   ? 		H 		0.333868
H 1.0  		0.07005558873097917 		0.21319619705697984  0.22314285714285714 		Uiso   ? 		H 		0.334686
H 1.0  		0.07005558873097917 		0.21319619705697984  0.7231428571428572 		Uiso   ? 		H 		0.334686
H 1.0  		0.5701010207269684 		0.21319619705697984  0.22314285714285714 		Uiso   ? 		H 		0.334686
H 1.0  		0.5701010207269684 		0.21319619705697984  0.7231428571428572 		Uiso   ? 		H 		0.334686
H 1.0  		0.17002680724437647 		0.4131386340837745  0.22314285714285714 		Uiso   ? 		H 		0.334541
H 1.0  		0.17002680724437647 		0.4131386340837745  0.7231428571428572 		Uiso   ? 		H 		0.334541
H 1.0  		0.6700722392403657 		0.4131386340837745  0.22314285714285714 		Uiso   ? 		H 		0.334541
H 1.0  		0.6700722392403657 		0.4131386340837745  0.7231428571428572 		Uiso   ? 		H 		0.334541
H 1.0  		0.2699980257577737 		0.6130810711105691  0.22314285714285714 		Uiso   ? 		H 		0.332379
H 1.0  		0.2699980257577737 		0.6130810711105691  0.7231428571428572 		Uiso   ? 		H 		0.332379
H 1.0  		0.770043457753763 		0.6130810711105691  0.22314285714285714 		Uiso   ? 		H 		0.332379
H 1.0  		0.770043457753763 		0.6130810711105691  0.7231428571428572 		Uiso   ? 		H 		0.332379
H 1.0  		0.36996924427117106 		0.8132128475663664  0.22314285714285714 		Uiso   ? 		H 		0.334038
H 1.0  		0.36996924427117106 		0.8132128475663664  0.7231428571428572 		Uiso   ? 		H 		0.334038
H 1.0  		0.8700146762671602 		0.8132128475663664  0.22314285714285714 		Uiso   ? 		H 		0.334038
H 1.0  		0.8700146762671602 		0.8132128475663664  0.7231428571428572 		Uiso   ? 		H 		0.334038
H 1.0  		0.3339947527606683 		0.10300064937743966  0.22314285714285714 		Uiso   ? 		H 		0.301846
H 1.0  		0.3339947527606683 		0.10300064937743966  0.7231428571428572 		Uiso   ? 		H 		0.301846
H 1.0  		0.8340401847566575 		0.10300064937743966  0.22314285714285714 		Uiso   ? 		H 		0.301846
H 1.0  		0.8340401847566575 		0.10300064937743966  0.7231428571428572 		Uiso   ? 		H 		0.301846
H 1.0  		0.43396597127406555 		0.3029430864042343  0.22314285714285714 		Uiso   ? 		H 		0.302362
H 1.0  		0.43396597127406555 		0.3029430864042343  0.7231428571428572 		Uiso   ? 		H 		0.302362
H 1.0  		0.9340114032700547 		0.3029430864042343  0.22314285714285714 		Uiso   ? 		H 		0.302362
H 1.0  		0.9340114032700547 		0.3029430864042343  0.7231428571428572 		Uiso   ? 		H 		0.302362
H 1.0  		0.03389175779147368 		0.5028855234310289  0.22314285714285714 		Uiso   ? 		H 		0.301040
H 1.0  		0.03389175779147368 		0.5028855234310289  0.7231428571428572 		Uiso   ? 		H 		0.301040
H 1.0  		0.5339371897874629 		0.5028855234310289  0.22314285714285714 		Uiso   ? 		H 		0.301040
H 1.0  		0.5339371897874629 		0.5028855234310289  0.7231428571428572 		Uiso   ? 		H 		0.301040
H 1.0  		0.1340523157338736 		0.7030172998868262  0.22314285714285714 		Uiso   ? 		H 		0.303315
H 1.0  		0.1340523157338736 		0.7030172998868262  0.7231428571428572 		Uiso   ? 		H 		0.303315
H 1.0  		0.6340977477298629 		0.7030172998868262  0.22314285714285714 		Uiso   ? 		H 		0.303315
H 1.0  		0.6340977477298629 		0.7030172998868262  0.7231428571428572 		Uiso   ? 		H 		0.303315
H 1.0  		0.23402353424727093 		0.9029597369136209  0.22314285714285714 		Uiso   ? 		H 		0.303290
H 1.0  		0.23402353424727093 		0.9029597369136209  0.7231428571428572 		Uiso   ? 		H 		0.303290
H 1.0  		0.7340689662432601 		0.9029597369136209  0.22314285714285714 		Uiso   ? 		H 		0.303290
H 1.0  		0.7340689662432601 		0.9029597369136209  0.7231428571428572 		Uiso   ? 		H 		0.303290
H 1.0  		0.43036852212301535 		0.15809842321720977  0.22314285714285714 		Uiso   ? 		H 		0.334316
H 1.0  		0.43036852212301535 		0.15809842321720977  0.7231428571428572 		Uiso   ? 		H 		0.334316
H 1.0  		0.9304139541190045 		0.15809842321720977  0.22314285714285714 		Uiso   ? 		H 		0.334316
H 1.0  		0.9304139541190045 		0.15809842321720977  0.7231428571428572 		Uiso   ? 		H 		0.334316
H 1.0  		0.030483648069426054 		0.3580408602440044  0.22314285714285714 		Uiso   ? 		H 		0.334579
H 1.0  		0.030483648069426054 		0.3580408602440044  0.7231428571428572 		Uiso   ? 		H 		0.334579
H 1.0  		0.5305290800654153 		0.3580408602440044  0.22314285714285714 		Uiso   ? 		H 		0.334579
H 1.0  		0.5305290800654153 		0.3580408602440044  0.7231428571428572 		Uiso   ? 		H 		0.334579
H 1.0  		0.13045486658282335 		0.557983297270799  0.22314285714285714 		Uiso   ? 		H 		0.332491
H 1.0  		0.13045486658282335 		0.557983297270799  0.7231428571428572 		Uiso   ? 		H 		0.332491
H 1.0  		0.6305002985788126 		0.557983297270799  0.22314285714285714 		Uiso   ? 		H 		0.332491
H 1.0  		0.6305002985788126 		0.557983297270799  0.7231428571428572 		Uiso   ? 		H 		0.332491
H 1.0  		0.23042608509622065 		0.7581150737265961  0.22314285714285714 		Uiso   ? 		H 		0.334374
H 1.0  		0.23042608509622065 		0.7581150737265961  0.7231428571428572 		Uiso   ? 		H 		0.334374
H 1.0  		0.7304715170922099 		0.7581150737265961  0.22314285714285714 		Uiso   ? 		H 		0.334374
H 1.0  		0.7304715170922099 		0.7581150737265961  0.7231428571428572 		Uiso   ? 		H 		0.334374
H 1.0  		0.330397303609618 		0.9580575107533909  0.22314285714285714 		Uiso   ? 		H 		0.334412
H 1.0  		0.330397303609618 		0.9580575107533909  0.7231428571428572 		Uiso   ? 		H 		0.334412
H 1.0  		0.8304427356056071 		0.9580575107533909  0.22314285714285714 		Uiso   ? 		H 		0.334412
H 1.0  		0.8304427356056071 		0.9580575107533909  0.7231428571428572 		Uiso   ? 		H 		0.334412
H 1.0  		0.2202017559300778 		0.01325376003018525  0.22314285714285714 		Uiso   ? 		H 		0.334534
H 1.0  		0.2202017559300778 		0.01325376003018525  0.7231428571428572 		Uiso   ? 		H 		0.334534
H 1.0  		0.720247187926067 		0.01325376003018525  0.22314285714285714 		Uiso   ? 		H 		0.334534
H 1.0  		0.720247187926067 		0.01325376003018525  0.7231428571428572 		Uiso   ? 		H 		0.334534
H 1.0  		0.3201729744434751 		0.21338553648598252  0.22314285714285714 		Uiso   ? 		H 		0.334410
H 1.0  		0.3201729744434751 		0.21338553648598252  0.7231428571428572 		Uiso   ? 		H 		0.334410
H 1.0  		0.8202184064394643 		0.21338553648598252  0.22314285714285714 		Uiso   ? 		H 		0.334410
H 1.0  		0.8202184064394643 		0.21338553648598252  0.7231428571428572 		Uiso   ? 		H 		0.334410
H 1.0  		0.4201441929568724 		0.4133279735127771  0.22314285714285714 		Uiso   ? 		H 		0.334704
H 1.0  		0.4201441929568724 		0.4133279735127771  0.7231428571428572 		Uiso   ? 		H 		0.334704
H 1.0  		0.9201896249528617 		0.4133279735127771  0.22314285714285714 		Uiso   ? 		H 		0.334704
H 1.0  		0.9201896249528617 		0.4133279735127771  0.7231428571428572 		Uiso   ? 		H 		0.334704
H 1.0  		0.020259318903283127 		0.6132704105395718  0.22314285714285714 		Uiso   ? 		H 		0.335674
H 1.0  		0.020259318903283127 		0.6132704105395718  0.7231428571428572 		Uiso   ? 		H 		0.335674
H 1.0  		0.5203047508992724 		0.6132704105395718  0.22314285714285714 		Uiso   ? 		H 		0.335674
H 1.0  		0.5203047508992724 		0.6132704105395718  0.7231428571428572 		Uiso   ? 		H 		0.335674
H 1.0  		0.12023053741668042 		0.813402186995369  0.22314285714285714 		Uiso   ? 		H 		0.333648
H 1.0  		0.12023053741668042 		0.813402186995369  0.7231428571428572 		Uiso   ? 		H 		0.333648
H 1.0  		0.6202759694126696 		0.813402186995369  0.22314285714285714 		Uiso   ? 		H 		0.333648
H 1.0  		0.6202759694126696 		0.813402186995369  0.7231428571428572 		Uiso   ? 		H 		0.333648
H 1.0  		0.08387736704817236 		0.10300064937743966  0.22314285714285714 		Uiso   ? 		H 		0.302920
H 1.0  		0.08387736704817236 		0.10300064937743966  0.7231428571428572 		Uiso   ? 		H 		0.302920
H 1.0  		0.5839227990441616 		0.10300064937743966  0.22314285714285714 		Uiso   ? 		H 		0.302920
H 1.0  		0.5839227990441616 		0.10300064937743966  0.7231428571428572 		Uiso   ? 		H 		0.302920
H 1.0  		0.18384858556156963 		0.3029430864042343  0.22314285714285714 		Uiso   ? 		H 		0.300838
H 1.0  		0.18384858556156963 		0.3029430864042343  0.7231428571428572 		Uiso   ? 		H 		0.300838
H 1.0  		0.6838940175575589 		0.3029430864042343  0.22314285714285714 		Uiso   ? 		H 		0.300838
H 1.0  		0.6838940175575589 		0.3029430864042343  0.7231428571428572 		Uiso   ? 		H 		0.300838
H 1.0  		0.28381980407496693 		0.5030748628600316  0.22314285714285714 		Uiso   ? 		H 		0.302487
H 1.0  		0.28381980407496693 		0.5030748628600316  0.7231428571428572 		Uiso   ? 		H 		0.302487
H 1.0  		0.7838652360709562 		0.5030748628600316  0.22314285714285714 		Uiso   ? 		H 		0.302487
H 1.0  		0.7838652360709562 		0.5030748628600316  0.7231428571428572 		Uiso   ? 		H 		0.302487
H 1.0  		0.3837910225883643 		0.7030172998868262  0.22314285714285714 		Uiso   ? 		H 		0.302619
H 1.0  		0.3837910225883643 		0.7030172998868262  0.7231428571428572 		Uiso   ? 		H 		0.302619
H 1.0  		0.8838364545843536 		0.7030172998868262  0.22314285714285714 		Uiso   ? 		H 		0.302619
H 1.0  		0.8838364545843536 		0.7030172998868262  0.7231428571428572 		Uiso   ? 		H 		0.302619
H 1.0  		0.4839515805307642 		0.9029597369136209  0.22314285714285714 		Uiso   ? 		H 		0.301672
H 1.0  		0.4839515805307642 		0.9029597369136209  0.7231428571428572 		Uiso   ? 		H 		0.301672
H 1.0  		0.9839970125267534 		0.9029597369136209  0.22314285714285714 		Uiso   ? 		H 		0.301672
H 1.0  		0.9839970125267534 		0.9029597369136209  0.7231428571428572 		Uiso   ? 		H 		0.301672
H 1.0  		0.18044047583952202 		0.15809842321720977  0.22314285714285714 		Uiso   ? 		H 		0.334491
H 1.0  		0.18044047583952202 		0.15809842321720977  0.7231428571428572 		Uiso   ? 		H 		0.334491
H 1.0  		0.6804859078355112 		0.15809842321720977  0.22314285714285714 		Uiso   ? 		H 		0.334491
H 1.0  		0.6804859078355112 		0.15809842321720977  0.7231428571428572 		Uiso   ? 		H 		0.334491
H 1.0  		0.28041169435291935 		0.3580408602440044  0.22314285714285714 		Uiso   ? 		H 		0.334856
H 1.0  		0.28041169435291935 		0.3580408602440044  0.7231428571428572 		Uiso   ? 		H 		0.334856
H 1.0  		0.7804571263489085 		0.3580408602440044  0.22314285714285714 		Uiso   ? 		H 		0.334856
H 1.0  		0.7804571263489085 		0.3580408602440044  0.7231428571428572 		Uiso   ? 		H 		0.334856
H 1.0  		0.3805722522953192 		0.557983297270799  0.22314285714285714 		Uiso   ? 		H 		0.334685
H 1.0  		0.3805722522953192 		0.557983297270799  0.7231428571428572 		Uiso   ? 		H 		0.334685
H 1.0  		0.8806176842913085 		0.557983297270799  0.22314285714285714 		Uiso   ? 		H 		0.334685
H 1.0  		0.8806176842913085 		0.557983297270799  0.7231428571428572 		Uiso   ? 		H 		0.334685
H 1.0  		0.4805434708087165 		0.7581150737265961  0.22314285714285714 		Uiso   ? 		H 		0.334462
H 1.0  		0.4805434708087165 		0.7581150737265961  0.7231428571428572 		Uiso   ? 		H 		0.334462
H 1.0  		0.9805889028047059 		0.7581150737265961  0.22314285714285714 		Uiso   ? 		H 		0.334462
H 1.0  		0.9805889028047059 		0.7581150737265961  0.7231428571428572 		Uiso   ? 		H 		0.334462
H 1.0  		0.08046925732612467 		0.9580575107533909  0.22314285714285714 		Uiso   ? 		H 		0.335986
H 1.0  		0.08046925732612467 		0.9580575107533909  0.7231428571428572 		Uiso   ? 		H 		0.335986
H 1.0  		0.5805146893221138 		0.9580575107533909  0.22314285714285714 		Uiso   ? 		H 		0.335986
H 1.0  		0.5805146893221138 		0.9580575107533909  0.7231428571428572 		Uiso   ? 		H 		0.335986
H 1.0  		0.4701298022135711 		0.01325376003018525  0.3231428571428571 		Uiso   ? 		H 		0.333737
H 1.0  		0.4701298022135711 		0.01325376003018525  0.8231428571428571 		Uiso   ? 		H 		0.333737
H 1.0  		0.9701752342095602 		0.01325376003018525  0.3231428571428571 		Uiso   ? 		H 		0.333737
H 1.0  		0.9701752342095602 		0.01325376003018525  0.8231428571428571 		Uiso   ? 		H 		0.333737
H 1.0  		0.07005558873097917 		0.21319619705697984  0.3231428571428571 		Uiso   ? 		H 		0.334711
H 1.0  		0.07005558873097917 		0.21319619705697984  0.8231428571428571 		Uiso   ? 		H 		0.334711
H 1.0  		0.5701010207269684 		0.21319619705697984  0.3231428571428571 		Uiso   ? 		H 		0.334711
H 1.0  		0.5701010207269684 		0.21319619705697984  0.8231428571428571 		Uiso   ? 		H 		0.334711
H 1.0  		0.17002680724437647 		0.4131386340837745  0.3231428571428571 		Uiso   ? 		H 		0.334563
H 1.0  		0.17002680724437647 		0.4131386340837745  0.8231428571428571 		Uiso   ? 		H 		0.334563
H 1.0  		0.6700722392403657 		0.4131386340837745  0.3231428571428571 		Uiso   ? 		H 		0.334563
H 1.0  		0.6700722392403657 		0.4131386340837745  0.8231428571428571 		Uiso   ? 		H 		0.334563
H 1.0  		0.2699980257577737 		0.6130810711105691  0.3231428571428571 		Uiso   ? 		H 		0.332148
H 1.0  		0.2699980257577737 		0.6130810711105691  0.8231428571428571 		Uiso   ? 		H 		0.332148
H 1.0  		0.770043457753763 		0.6130810711105691  0.3231428571428571 		Uiso   ? 		H 		0.332148
H 1.0  		0.770043457753763 		0.6130810711105691  0.8231428571428571 		Uiso   ? 		H 		0.332148
H 1.0  		0.36996924427117106 		0.8132128475663664  0.3231428571428571 		Uiso   ? 		H 		0.334122
H 1.0  		0.36996924427117106 		0.8132128475663664  0.8231428571428571 		Uiso   ? 		H 		0.334122
H 1.0  		0.8700146762671602 		0.8132128475663664  0.3231428571428571 		Uiso   ? 		H 		0.334122
H 1.0  		0.8700146762671602 		0.8132128475663664  0.8231428571428571 		Uiso   ? 		H 		0.334122
H 1.0  		0.3339947527606683 		0.10300064937743966  0.3231428571428571 		Uiso   ? 		H 		0.301701
H 1.0  		0.3339947527606683 		0.10300064937743966  0.8231428571428571 		Uiso   ? 		H 		0.301701
H 1.0  		0.8340401847566575 		0.10300064937743966  0.3231428571428571 		Uiso   ? 		H 		0.301701
H 1.0  		0.8340401847566575 		0.10300064937743966  0.8231428571428571 		Uiso   ? 		H 		0.301701
H 1.0  		0.43396597127406555 		0.3029430864042343  0.3231428571428571 		Uiso   ? 		H 		0.301556
H 1.0  		0.43396597127406555 		0.3029430864042343  0.8231428571428571 		Uiso   ? 		H 		0.301556
H 1.0  		0.9340114032700547 		0.3029430864042343  0.3231428571428571 		Uiso   ? 		H 		0.301556
H 1.0  		0.9340114032700547 		0.3029430864042343  0.8231428571428571 		Uiso   ? 		H 		0.301556
H 1.0  		0.03389175779147368 		0.5028855234310289  0.3231428571428571 		Uiso   ? 		H 		0.301470
H 1.0  		0.03389175779147368 		0.5028855234310289  0.8231428571428571 		Uiso   ? 		H 		0.301470
H 1.0  		0.5339371897874629 		0.5028855234310289  0.3231428571428571 		Uiso   ? 		H 		0.301470
H 1.0  		0.5339371897874629 		0.5028855234310289  0.8231428571428571 		Uiso   ? 		H 		0.301470
H 1.0  		0.1340523157338736 		0.7030172998868262  0.3231428571428571 		Uiso   ? 		H 		0.303472
H 1.0  		0.1340523157338736 		0.7030172998868262  0.8231428571428571 		Uiso   ? 		H 		0.303472
H 1.0  		0.6340977477298629 		0.7030172998868262  0.3231428571428571 		Uiso   ? 		H 		0.303472
H 1.0  		0.6340977477298629 		0.7030172998868262  0.8231428571428571 		Uiso   ? 		H 		0.303472
H 1.0  		0.23402353424727093 		0.9029597369136209  0.3231428571428571 		Uiso   ? 		H 		0.303366
H 1.0  		0.23402353424727093 		0.9029597369136209  0.8231428571428571 		Uiso   ? 		H 		0.303366
H 1.0  		0.7340689662432601 		0.9029597369136209  0.3231428571428571 		Uiso   ? 		H 		0.303366
H 1.0  		0.7340689662432601 		0.9029597369136209  0.8231428571428571 		Uiso   ? 		H 		0.303366
H 1.0  		0.43036852212301535 		0.15809842321720977  0.3231428571428571 		Uiso   ? 		H 		0.334304
H 1.0  		0.43036852212301535 		0.15809842321720977  0.8231428571428571 		Uiso   ? 		H 		0.334304
H 1.0  		0.9304139541190045 		0.15809842321720977  0.3231428571428571 		Uiso   ? 		H 		0.334304
H 1.0  		0.9304139541190045 		0.15809842321720977  0.8231428571428571 		Uiso   ? 		H 		0.334304
H 1.0  		0.030483648069426054 		0.3580408602440044  0.3231428571428571 		Uiso   ? 		H 		0.334543
H 1.0  		0.030483648069426054 		0.3580408602440044  0.8231428571428571 		Uiso   ? 		H 		0.334543
H 1.0  		0.5305290800654153 		0.3580408602440044  0.3231428571428571 		Uiso   ? 		H 		0.334543
H 1.0  		0.5305290800654153 		0.3580408602440044  0.8231428571428571 		Uiso   ? 		H 		0.334543
H 1.0  		0.13045486658282335 		0.557983297270799  0.3231428571428571 		Uiso   ? 		H 		0.332160
H 1.0  		0.13045486658282335 		0.557983297270799  0.8231428571428571 		Uiso   ? 		H 		0.332160
H 1.0  		0.6305002985788126 		0.557983297270799  0.3231428571428571 		Uiso   ? 		H 		0.332160
H 1.0  		0.6305002985788126 		0.557983297270799  0.8231428571428571 		Uiso   ? 		H 		0.332160
H 1.0  		0.23042608509622065 		0.7581150737265961  0.3231428571428571 		Uiso   ? 		H 		0.334338
H 1.0  		0.23042608509622065 		0.7581150737265961  0.8231428571428571 		Uiso   ? 		H 		0.334338
H 1.0  		0.7304715170922099 		0.7581150737265961  0.3231428571428571 		Uiso   ? 		H 		0.334338
H 1.0  		0.7304715170922099 		0.7581150737265961  0.8231428571428571 		Uiso   ? 		H 		0.334338
H 1.0  		0.330397303609618 		0.9580575107533909  0.3231428571428571 		Uiso   ? 		H 		0.333923
H 1.0  		0.330397303609618 		0.9580575107533909  0.8231428571428571 		Uiso   ? 		H 		0.333923
H 1.0  		0.8304427356056071 		0.9580575107533909  0.3231428571428571 		Uiso   ? 		H 		0.333923
H 1.0  		0.8304427356056071 		0.9580575107533909  0.8231428571428571 		Uiso   ? 		H 		0.333923
H 1.0  		0.2202017559300778 		0.01325376003018525  0.3231428571428571 		Uiso   ? 		H 		0.334752
H 1.0  		0.2202017559300778 		0.01325376003018525  0.8231428571428571 		Uiso   ? 		H 		0.334752
H 1.0  		0.720247187926067 		0.01325376003018525  0.3231428571428571 		Uiso   ? 		H 		0.334752
H 1.0  		0.720247187926067 		0.01325376003018525  0.8231428571428571 		Uiso   ? 		H 		0.334752
H 1.0  		0.3201729744434751 		0.21338553648598252  0.3231428571428571 		Uiso   ? 		H 		0.334075
H 1.0  		0.3201729744434751 		0.21338553648598252  0.8231428571428571 		Uiso   ? 		H 		0.334075
H 1.0  		0.8202184064394643 		0.21338553648598252  0.3231428571428571 		Uiso   ? 		H 		0.334075
H 1.0  		0.8202184064394643 		0.21338553648598252  0.8231428571428571 		Uiso   ? 		H 		0.334075
H 1.0  		0.4201441929568724 		0.4133279735127771  0.3231428571428571 		Uiso   ? 		H 		0.334916
H 1.0  		0.4201441929568724 		0.4133279735127771  0.8231428571428571 		Uiso   ? 		H 		0.334916
H 1.0  		0.9201896249528617 		0.4133279735127771  0.3231428571428571 		Uiso   ? 		H 		0.334916
H 1.0  		0.9201896249528617 		0.4133279735127771  0.8231428571428571 		Uiso   ? 		H 		0.334916
H 1.0  		0.020259318903283127 		0.6132704105395718  0.3231428571428571 		Uiso   ? 		H 		0.335569
H 1.0  		0.020259318903283127 		0.6132704105395718  0.8231428571428571 		Uiso   ? 		H 		0.335569
H 1.0  		0.5203047508992724 		0.6132704105395718  0.3231428571428571 		Uiso   ? 		H 		0.335569
H 1.0  		0.5203047508992724 		0.6132704105395718  0.8231428571428571 		Uiso   ? 		H 		0.335569
H 1.0  		0.12023053741668042 		0.813402186995369  0.3231428571428571 		Uiso   ? 		H 		0.334088
H 1.0  		0.12023053741668042 		0.813402186995369  0.8231428571428571 		Uiso   ? 		H 		0.334088
H 1.0  		0.6202759694126696 		0.813402186995369  0.3231428571428571 		Uiso   ? 		H 		0.334088
H 1.0  		0.6202759694126696 		0.813402186995369  0.8231428571428571 		Uiso   ? 		H 		0.334088
H 1.0  		0.08387736704817236 		0.10300064937743966  0.3231428571428571 		Uiso   ? 		H 		0.302904
H 1.0  		0.08387736704817236 		0.10300064937743966  0.8231428571428571 		Uiso   ? 		H 		0.302904
H 1.0  		0.5839227990441616 		0.10300064937743966  0.3231428571428571 		Uiso   ? 		H 		0.302904
H 1.0  		0.5839227990441616 		0.10300064937743966  0.8231428571428571 		Uiso   ? 		H 		0.302904
H 1.0  		0.18384858556156963 		0.3029430864042343  0.3231428571428571 		Uiso   ? 		H 		0.301154
H 1.0  		0.18384858556156963 		0.3029430864042343  0.8231428571428571 		Uiso   ? 		H 		0.301154
H 1.0  		0.6838940175575589 		0.3029430864042343  0.3231428571428571 		Uiso   ? 		H 		0.301154
H 1.0  		0.6838940175575589 		0.3029430864042343  0.8231428571428571 		Uiso   ? 		H 		0.301154
H 1.0  		0.28381980407496693 		0.5030748628600316  0.3231428571428571 		Uiso   ? 		H 		0.302272
H 1.0  		0.28381980407496693 		0.5030748628600316  0.8231428571428571 		Uiso   ? 		H 		0.302272
H 1.0  		0.7838652360709562 		0.5030748628600316  0.3231428571428571 		Uiso   ? 		H 		0.302272
H 1.0  		0.7838652360709562 		0.5030748628600316  0.8231428571428571 		Uiso   ? 		H 		0.302272
H 1.0  		0.3837910225883643 		0.7030172998868262  0.3231428571428571 		Uiso   ? 		H 		0.302906
H 1.0  		0.3837910225883643 		0.7030172998868262  0.8231428571428571 		Uiso   ? 		H 		0.302906
H 1.0  		0.8838364545843536 		0.7030172998868262  0.3231428571428571 		Uiso   ? 		H 		0.302906
H 1.0  		0.8838364545843536 		0.7030172998868262  0.8231428571428571 		Uiso   ? 		H 		0.302906
H 1.0  		0.4839515805307642 		0.9029597369136209  0.3231428571428571 		Uiso   ? 		H 		0.301584
H 1.0  		0.4839515805307642 		0.9029597369136209  0.8231428571428571 		Uiso   ? 		H 		0.301584
H 1.0  		0.9839970125267534 		0.9029597369136209  0.3231428571428571 		Uiso   ? 		H 		0.301584
H 1.0  		0.9839970125267534 		0.9029597369136209  0.8231428571428571 		Uiso   ? 		H 		0.301584
H 1.0  		0.18044047583952202 		0.15809842321720977  0.3234285714285714 		Uiso   ? 		H 		0.334393
H 1.0  		0.18044047583952202 		0.15809842321720977  0.8234285714285715 		Uiso   ? 		H 		0.334393
H 1.0  		0.6804859078355112 		0.15809842321720977  0.3234285714285714 		Uiso   ? 		H 		0.334393
H 1.0  		0.6804859078355112 		0.15809842321720977  0.8234285714285715 		Uiso   ? 		H 		0.334393
H 1.0  		0.28041169435291935 		0.3580408602440044  0.3234285714285714 		Uiso   ? 		H 		0.334637
H 1.0  		0.28041169435291935 		0.3580408602440044  0.8234285714285715 		Uiso   ? 		H 		0.334637
H 1.0  		0.7804571263489085 		0.3580408602440044  0.3234285714285714 		Uiso   ? 		H 		0.334637
H 1.0  		0.7804571263489085 		0.3580408602440044  0.8234285714285715 		Uiso   ? 		H 		0.334637
H 1.0  		0.3805722522953192 		0.557983297270799  0.3234285714285714 		Uiso   ? 		H 		0.335015
H 1.0  		0.3805722522953192 		0.557983297270799  0.8234285714285715 		Uiso   ? 		H 		0.335015
H 1.0  		0.8806176842913085 		0.557983297270799  0.3234285714285714 		Uiso   ? 		H 		0.335015
H 1.0  		0.8806176842913085 		0.557983297270799  0.8234285714285715 		Uiso   ? 		H 		0.335015
H 1.0  		0.4805434708087165 		0.7581150737265961  0.3234285714285714 		Uiso   ? 		H 		0.334662
H 1.0  		0.4805434708087165 		0.7581150737265961  0.8234285714285715 		Uiso   ? 		H 		0.334662
H 1.0  		0.9805889028047059 		0.7581150737265961  0.3234285714285714 		Uiso   ? 		H 		0.334662
H 1.0  		0.9805889028047059 		0.7581150737265961  0.8234285714285715 		Uiso   ? 		H 		0.334662
H 1.0  		0.08046925732612467 		0.9580575107533909  0.3234285714285714 		Uiso   ? 		H 		0.336584
H 1.0  		0.08046925732612467 		0.9580575107533909  0.8234285714285715 		Uiso   ? 		H 		0.336584
H 1.0  		0.5805146893221138 		0.9580575107533909  0.3234285714285714 		Uiso   ? 		H 		0.336584
H 1.0  		0.5805146893221138 		0.9580575107533909  0.8234285714285715 		Uiso   ? 		H 		0.336584
N 1.0  		0.2853345195069881 		0.11133158425355609  0.42314285714285715 		Uiso   ? 		N 		-0.533251
N 1.0  		0.2853345195069881 		0.11133158425355609  0.9231428571428572 		Uiso   ? 		N 		-0.533251
N 1.0  		0.7853799515029773 		0.11133158425355609  0.42314285714285715 		Uiso   ? 		N 		-0.533251
N 1.0  		0.7853799515029773 		0.11133158425355609  0.9231428571428572 		Uiso   ? 		N 		-0.533251
N 1.0  		0.3853057380203855 		0.3114633607093534  0.42314285714285715 		Uiso   ? 		N 		-0.533433
N 1.0  		0.3853057380203855 		0.3114633607093534  0.9231428571428572 		Uiso   ? 		N 		-0.533433
N 1.0  		0.8853511700163748 		0.3114633607093534  0.42314285714285715 		Uiso   ? 		N 		-0.533433
N 1.0  		0.8853511700163748 		0.3114633607093534  0.9231428571428572 		Uiso   ? 		N 		-0.533433
N 1.0  		0.4852769565337828 		0.511405797736148  0.42314285714285715 		Uiso   ? 		N 		-0.534099
N 1.0  		0.4852769565337828 		0.511405797736148  0.9231428571428572 		Uiso   ? 		N 		-0.534099
N 1.0  		0.9853223885297719 		0.511405797736148  0.42314285714285715 		Uiso   ? 		N 		-0.534099
N 1.0  		0.9853223885297719 		0.511405797736148  0.9231428571428572 		Uiso   ? 		N 		-0.534099
N 1.0  		0.08539208248019349 		0.7113482347629426  0.42314285714285715 		Uiso   ? 		N 		-0.532708
N 1.0  		0.08539208248019349 		0.7113482347629426  0.9231428571428572 		Uiso   ? 		N 		-0.532708
N 1.0  		0.5854375144761828 		0.7113482347629426  0.42314285714285715 		Uiso   ? 		N 		-0.532708
N 1.0  		0.5854375144761828 		0.7113482347629426  0.9231428571428572 		Uiso   ? 		N 		-0.532708
N 1.0  		0.1853633009935908 		0.9112906717897372  0.42314285714285715 		Uiso   ? 		N 		-0.536344
N 1.0  		0.1853633009935908 		0.9112906717897372  0.9231428571428572 		Uiso   ? 		N 		-0.536344
N 1.0  		0.6854087329895799 		0.9112906717897372  0.42314285714285715 		Uiso   ? 		N 		-0.536344
N 1.0  		0.6854087329895799 		0.9112906717897372  0.9231428571428572 		Uiso   ? 		N 		-0.536344
N 1.0  		0.45782273932839906 		0.029726290353415487  0.42314285714285715 		Uiso   ? 		N 		-0.347081
N 1.0  		0.45782273932839906 		0.029726290353415487  0.9231428571428572 		Uiso   ? 		N 		-0.347081
N 1.0  		0.9578681713243883 		0.029726290353415487  0.42314285714285715 		Uiso   ? 		N 		-0.347081
N 1.0  		0.9578681713243883 		0.029726290353415487  0.9231428571428572 		Uiso   ? 		N 		-0.347081
N 1.0  		0.05774852584580714 		0.22966872738021013  0.42314285714285715 		Uiso   ? 		N 		-0.351604
N 1.0  		0.05774852584580714 		0.22966872738021013  0.9231428571428572 		Uiso   ? 		N 		-0.351604
N 1.0  		0.5577939578417964 		0.22966872738021013  0.42314285714285715 		Uiso   ? 		N 		-0.351604
N 1.0  		0.5577939578417964 		0.22966872738021013  0.9231428571428572 		Uiso   ? 		N 		-0.351604
N 1.0  		0.15771974435920444 		0.42961116440700475  0.42314285714285715 		Uiso   ? 		N 		-0.348456
N 1.0  		0.15771974435920444 		0.42961116440700475  0.9231428571428572 		Uiso   ? 		N 		-0.348456
N 1.0  		0.6577651763551937 		0.42961116440700475  0.42314285714285715 		Uiso   ? 		N 		-0.348456
N 1.0  		0.6577651763551937 		0.42961116440700475  0.9231428571428572 		Uiso   ? 		N 		-0.348456
N 1.0  		0.25769096287260174 		0.629742940862802  0.42314285714285715 		Uiso   ? 		N 		-0.347887
N 1.0  		0.25769096287260174 		0.629742940862802  0.9231428571428572 		Uiso   ? 		N 		-0.347887
N 1.0  		0.7577363948685909 		0.629742940862802  0.42314285714285715 		Uiso   ? 		N 		-0.347887
N 1.0  		0.7577363948685909 		0.629742940862802  0.9231428571428572 		Uiso   ? 		N 		-0.347887
N 1.0  		0.35785152081500166 		0.8296853778895965  0.42314285714285715 		Uiso   ? 		N 		-0.347217
N 1.0  		0.35785152081500166 		0.8296853778895965  0.9231428571428572 		Uiso   ? 		N 		-0.347217
N 1.0  		0.8578969528109909 		0.8296853778895965  0.42314285714285715 		Uiso   ? 		N 		-0.347217
N 1.0  		0.8578969528109909 		0.8296853778895965  0.9231428571428572 		Uiso   ? 		N 		-0.347217
N 1.0  		0.4975840194189548 		0.04695617839265631  0.42314285714285715 		Uiso   ? 		N 		-0.457504
N 1.0  		0.4975840194189548 		0.04695617839265631  0.9231428571428572 		Uiso   ? 		N 		-0.457504
N 1.0  		0.997629451414944 		0.04695617839265631  0.42314285714285715 		Uiso   ? 		N 		-0.457504
N 1.0  		0.997629451414944 		0.04695617839265631  0.9231428571428572 		Uiso   ? 		N 		-0.457504
N 1.0  		0.0975098059363629 		0.24708795484845356  0.42314285714285715 		Uiso   ? 		N 		-0.457962
N 1.0  		0.0975098059363629 		0.24708795484845356  0.9231428571428572 		Uiso   ? 		N 		-0.457962
N 1.0  		0.5975552379323521 		0.24708795484845356  0.42314285714285715 		Uiso   ? 		N 		-0.457962
N 1.0  		0.5975552379323521 		0.24708795484845356  0.9231428571428572 		Uiso   ? 		N 		-0.457962
N 1.0  		0.19767036387876286 		0.44703039187524823  0.42314285714285715 		Uiso   ? 		N 		-0.459562
N 1.0  		0.19767036387876286 		0.44703039187524823  0.9231428571428572 		Uiso   ? 		N 		-0.459562
N 1.0  		0.6977157958747521 		0.44703039187524823  0.42314285714285715 		Uiso   ? 		N 		-0.459562
N 1.0  		0.6977157958747521 		0.44703039187524823  0.9231428571428572 		Uiso   ? 		N 		-0.459562
N 1.0  		0.29764158239216015 		0.6469728289020428  0.42314285714285715 		Uiso   ? 		N 		-0.456209
N 1.0  		0.29764158239216015 		0.6469728289020428  0.9231428571428572 		Uiso   ? 		N 		-0.456209
N 1.0  		0.7976870143881494 		0.6469728289020428  0.42314285714285715 		Uiso   ? 		N 		-0.456209
N 1.0  		0.7976870143881494 		0.6469728289020428  0.9231428571428572 		Uiso   ? 		N 		-0.456209
N 1.0  		0.39761280090555745 		0.8471046053578402  0.42314285714285715 		Uiso   ? 		N 		-0.458775
N 1.0  		0.39761280090555745 		0.8471046053578402  0.9231428571428572 		Uiso   ? 		N 		-0.458775
N 1.0  		0.8976582329015467 		0.8471046053578402  0.42314285714285715 		Uiso   ? 		N 		-0.458775
N 1.0  		0.8976582329015467 		0.8471046053578402  0.9231428571428572 		Uiso   ? 		N 		-0.458775
N 1.0  		0.32566381788455184 		0.08652811905420942  0.42314285714285715 		Uiso   ? 		N 		-0.419720
N 1.0  		0.32566381788455184 		0.08652811905420942  0.9231428571428572 		Uiso   ? 		N 		-0.419720
N 1.0  		0.825709249880541 		0.08652811905420942  0.42314285714285715 		Uiso   ? 		N 		-0.419720
N 1.0  		0.825709249880541 		0.08652811905420942  0.9231428571428572 		Uiso   ? 		N 		-0.419720
N 1.0  		0.4258243758269518 		0.286470556081004  0.42314285714285715 		Uiso   ? 		N 		-0.422211
N 1.0  		0.4258243758269518 		0.286470556081004  0.9231428571428572 		Uiso   ? 		N 		-0.422211
N 1.0  		0.9258698078229409 		0.286470556081004  0.42314285714285715 		Uiso   ? 		N 		-0.422211
N 1.0  		0.9258698078229409 		0.286470556081004  0.9231428571428572 		Uiso   ? 		N 		-0.422211
N 1.0  		0.025750162344359884 		0.4864129931077987  0.42314285714285715 		Uiso   ? 		N 		-0.419285
N 1.0  		0.025750162344359884 		0.4864129931077987  0.9231428571428572 		Uiso   ? 		N 		-0.419285
N 1.0  		0.5257955943403492 		0.4864129931077987  0.42314285714285715 		Uiso   ? 		N 		-0.419285
N 1.0  		0.5257955943403492 		0.4864129931077987  0.9231428571428572 		Uiso   ? 		N 		-0.419285
N 1.0  		0.12572138085775716 		0.6865447695635959  0.42314285714285715 		Uiso   ? 		N 		-0.418992
N 1.0  		0.12572138085775716 		0.6865447695635959  0.9231428571428572 		Uiso   ? 		N 		-0.418992
N 1.0  		0.6257668128537465 		0.6865447695635959  0.42314285714285715 		Uiso   ? 		N 		-0.418992
N 1.0  		0.6257668128537465 		0.6865447695635959  0.9231428571428572 		Uiso   ? 		N 		-0.418992
N 1.0  		0.22569259937115446 		0.8864872065903906  0.42314285714285715 		Uiso   ? 		N 		-0.420007
N 1.0  		0.22569259937115446 		0.8864872065903906  0.9231428571428572 		Uiso   ? 		N 		-0.420007
N 1.0  		0.7257380313671438 		0.8864872065903906  0.42314285714285715 		Uiso   ? 		N 		-0.420007
N 1.0  		0.7257380313671438 		0.8864872065903906  0.9231428571428572 		Uiso   ? 		N 		-0.420007
N 1.0  		0.17362425639542678 		0.004922825154068807  0.42314285714285715 		Uiso   ? 		N 		-0.429178
N 1.0  		0.17362425639542678 		0.004922825154068807  0.9231428571428572 		Uiso   ? 		N 		-0.429178
N 1.0  		0.6736696883914159 		0.004922825154068807  0.42314285714285715 		Uiso   ? 		N 		-0.429178
N 1.0  		0.6736696883914159 		0.004922825154068807  0.9231428571428572 		Uiso   ? 		N 		-0.429178
N 1.0  		0.2735954749088241 		0.20486526218086346  0.42314285714285715 		Uiso   ? 		N 		-0.424480
N 1.0  		0.2735954749088241 		0.20486526218086346  0.9231428571428572 		Uiso   ? 		N 		-0.424480
N 1.0  		0.7736409069048134 		0.20486526218086346  0.42314285714285715 		Uiso   ? 		N 		-0.424480
N 1.0  		0.7736409069048134 		0.20486526218086346  0.9231428571428572 		Uiso   ? 		N 		-0.424480
N 1.0  		0.37356669342222143 		0.404807699207658  0.42314285714285715 		Uiso   ? 		N 		-0.424903
N 1.0  		0.37356669342222143 		0.404807699207658  0.9231428571428572 		Uiso   ? 		N 		-0.424903
N 1.0  		0.8736121254182105 		0.404807699207658  0.42314285714285715 		Uiso   ? 		N 		-0.424903
N 1.0  		0.8736121254182105 		0.404807699207658  0.9231428571428572 		Uiso   ? 		N 		-0.424903
N 1.0  		0.4735379119356186 		0.6049394756634553  0.42314285714285715 		Uiso   ? 		N 		-0.429432
N 1.0  		0.4735379119356186 		0.6049394756634553  0.9231428571428572 		Uiso   ? 		N 		-0.429432
N 1.0  		0.973583343931608 		0.6049394756634553  0.42314285714285715 		Uiso   ? 		N 		-0.429432
N 1.0  		0.973583343931608 		0.6049394756634553  0.9231428571428572 		Uiso   ? 		N 		-0.429432
N 1.0  		0.0736530378820294 		0.80488191269025  0.42314285714285715 		Uiso   ? 		N 		-0.428274
N 1.0  		0.0736530378820294 		0.80488191269025  0.9231428571428572 		Uiso   ? 		N 		-0.428274
N 1.0  		0.5736984698780186 		0.80488191269025  0.42314285714285715 		Uiso   ? 		N 		-0.428274
N 1.0  		0.5736984698780186 		0.80488191269025  0.9231428571428572 		Uiso   ? 		N 		-0.428274
N 1.0  		0.4235523026789201 		0.004733485725066161  0.42314285714285715 		Uiso   ? 		N 		-0.426859
N 1.0  		0.4235523026789201 		0.004733485725066161  0.9231428571428572 		Uiso   ? 		N 		-0.426859
N 1.0  		0.9235977346749092 		0.004733485725066161  0.42314285714285715 		Uiso   ? 		N 		-0.426859
N 1.0  		0.9235977346749092 		0.004733485725066161  0.9231428571428572 		Uiso   ? 		N 		-0.426859
N 1.0  		0.023478089196328142 		0.20486526218086346  0.42314285714285715 		Uiso   ? 		N 		-0.428746
N 1.0  		0.023478089196328142 		0.20486526218086346  0.9231428571428572 		Uiso   ? 		N 		-0.428746
N 1.0  		0.5235235211923174 		0.20486526218086346  0.42314285714285715 		Uiso   ? 		N 		-0.428746
N 1.0  		0.5235235211923174 		0.20486526218086346  0.9231428571428572 		Uiso   ? 		N 		-0.428746
N 1.0  		0.12363864713872809 		0.404807699207658  0.42314285714285715 		Uiso   ? 		N 		-0.430611
N 1.0  		0.12363864713872809 		0.404807699207658  0.9231428571428572 		Uiso   ? 		N 		-0.430611
N 1.0  		0.6236840791347174 		0.404807699207658  0.42314285714285715 		Uiso   ? 		N 		-0.430611
N 1.0  		0.6236840791347174 		0.404807699207658  0.9231428571428572 		Uiso   ? 		N 		-0.430611
N 1.0  		0.2236098656521254 		0.6047501362344526  0.42314285714285715 		Uiso   ? 		N 		-0.426233
N 1.0  		0.2236098656521254 		0.6047501362344526  0.9231428571428572 		Uiso   ? 		N 		-0.426233
N 1.0  		0.7236552976481146 		0.6047501362344526  0.42314285714285715 		Uiso   ? 		N 		-0.426233
N 1.0  		0.7236552976481146 		0.6047501362344526  0.9231428571428572 		Uiso   ? 		N 		-0.426233
N 1.0  		0.32358108416552267 		0.80488191269025  0.42314285714285715 		Uiso   ? 		N 		-0.432349
N 1.0  		0.32358108416552267 		0.80488191269025  0.9231428571428572 		Uiso   ? 		N 		-0.432349
N 1.0  		0.8236265161615118 		0.80488191269025  0.42314285714285715 		Uiso   ? 		N 		-0.432349
N 1.0  		0.8236265161615118 		0.80488191269025  0.9231428571428572 		Uiso   ? 		N 		-0.432349
N 1.0  		0.48754902968181457 		0.18119783355553262  0.42314285714285715 		Uiso   ? 		N 		-0.370661
N 1.0  		0.48754902968181457 		0.18119783355553262  0.9231428571428572 		Uiso   ? 		N 		-0.370661
N 1.0  		0.9875944616778037 		0.18119783355553262  0.42314285714285715 		Uiso   ? 		N 		-0.370661
N 1.0  		0.9875944616778037 		0.18119783355553262  0.9231428571428572 		Uiso   ? 		N 		-0.370661
N 1.0  		0.08747481619922262 		0.38132961001132987  0.42314285714285715 		Uiso   ? 		N 		-0.375781
N 1.0  		0.08747481619922262 		0.38132961001132987  0.9231428571428572 		Uiso   ? 		N 		-0.375781
N 1.0  		0.5875202481952119 		0.38132961001132987  0.42314285714285715 		Uiso   ? 		N 		-0.375781
N 1.0  		0.5875202481952119 		0.38132961001132987  0.9231428571428572 		Uiso   ? 		N 		-0.375781
N 1.0  		0.18744603471261992 		0.5812720470381245  0.42314285714285715 		Uiso   ? 		N 		-0.371255
N 1.0  		0.18744603471261992 		0.5812720470381245  0.9231428571428572 		Uiso   ? 		N 		-0.371255
N 1.0  		0.6874914667086092 		0.5812720470381245  0.42314285714285715 		Uiso   ? 		N 		-0.371255
N 1.0  		0.6874914667086092 		0.5812720470381245  0.9231428571428572 		Uiso   ? 		N 		-0.371255
N 1.0  		0.28760659265501987 		0.7814038234939218  0.42314285714285715 		Uiso   ? 		N 		-0.372639
N 1.0  		0.28760659265501987 		0.7814038234939218  0.9231428571428572 		Uiso   ? 		N 		-0.372639
N 1.0  		0.7876520246510091 		0.7814038234939218  0.42314285714285715 		Uiso   ? 		N 		-0.372639
N 1.0  		0.7876520246510091 		0.7814038234939218  0.9231428571428572 		Uiso   ? 		N 		-0.372639
N 1.0  		0.3875778111684172 		0.9813462605207164  0.42314285714285715 		Uiso   ? 		N 		-0.372478
N 1.0  		0.3875778111684172 		0.9813462605207164  0.9231428571428572 		Uiso   ? 		N 		-0.372478
N 1.0  		0.8876232431644062 		0.9813462605207164  0.42314285714285715 		Uiso   ? 		N 		-0.372478
N 1.0  		0.8876232431644062 		0.9813462605207164  0.9231428571428572 		Uiso   ? 		N 		-0.372478
N 1.0  		0.4510065198843038 		0.15809842321720977  0.42314285714285715 		Uiso   ? 		N 		-0.349044
N 1.0  		0.4510065198843038 		0.15809842321720977  0.9231428571428572 		Uiso   ? 		N 		-0.349044
N 1.0  		0.9510519518802929 		0.15809842321720977  0.42314285714285715 		Uiso   ? 		N 		-0.349044
N 1.0  		0.9510519518802929 		0.15809842321720977  0.9231428571428572 		Uiso   ? 		N 		-0.349044
N 1.0  		0.05093230640171187 		0.3580408602440044  0.42314285714285715 		Uiso   ? 		N 		-0.353418
N 1.0  		0.05093230640171187 		0.3580408602440044  0.9231428571428572 		Uiso   ? 		N 		-0.353418
N 1.0  		0.5509777383977011 		0.3580408602440044  0.42314285714285715 		Uiso   ? 		N 		-0.353418
N 1.0  		0.5509777383977011 		0.3580408602440044  0.9231428571428572 		Uiso   ? 		N 		-0.353418
N 1.0  		0.15109286434411182 		0.557983297270799  0.42314285714285715 		Uiso   ? 		N 		-0.352436
N 1.0  		0.15109286434411182 		0.557983297270799  0.9231428571428572 		Uiso   ? 		N 		-0.352436
N 1.0  		0.651138296340101 		0.557983297270799  0.42314285714285715 		Uiso   ? 		N 		-0.352436
N 1.0  		0.651138296340101 		0.557983297270799  0.9231428571428572 		Uiso   ? 		N 		-0.352436
N 1.0  		0.2510640828575091 		0.7581150737265961  0.42314285714285715 		Uiso   ? 		N 		-0.347870
N 1.0  		0.2510640828575091 		0.7581150737265961  0.9231428571428572 		Uiso   ? 		N 		-0.347870
N 1.0  		0.7511095148534984 		0.7581150737265961  0.42314285714285715 		Uiso   ? 		N 		-0.347870
N 1.0  		0.7511095148534984 		0.7581150737265961  0.9231428571428572 		Uiso   ? 		N 		-0.347870
N 1.0  		0.35103530137090644 		0.9580575107533909  0.42314285714285715 		Uiso   ? 		N 		-0.346094
N 1.0  		0.35103530137090644 		0.9580575107533909  0.9231428571428572 		Uiso   ? 		N 		-0.346094
N 1.0  		0.8510807333668956 		0.9580575107533909  0.42314285714285715 		Uiso   ? 		N 		-0.346094
N 1.0  		0.8510807333668956 		0.9580575107533909  0.9231428571428572 		Uiso   ? 		N 		-0.346094
N 1.0  		0.2078946930449058 		0.029726290353415487  0.42314285714285715 		Uiso   ? 		N 		-0.351496
N 1.0  		0.2078946930449058 		0.029726290353415487  0.9231428571428572 		Uiso   ? 		N 		-0.351496
N 1.0  		0.707940125040895 		0.029726290353415487  0.42314285714285715 		Uiso   ? 		N 		-0.351496
N 1.0  		0.707940125040895 		0.029726290353415487  0.9231428571428572 		Uiso   ? 		N 		-0.351496
N 1.0  		0.30786591155830306 		0.22966872738021013  0.42314285714285715 		Uiso   ? 		N 		-0.350853
N 1.0  		0.30786591155830306 		0.22966872738021013  0.9231428571428572 		Uiso   ? 		N 		-0.350853
N 1.0  		0.8079113435542924 		0.22966872738021013  0.42314285714285715 		Uiso   ? 		N 		-0.350853
N 1.0  		0.8079113435542924 		0.22966872738021013  0.9231428571428572 		Uiso   ? 		N 		-0.350853
N 1.0  		0.40783713007170036 		0.4298005038360074  0.42314285714285715 		Uiso   ? 		N 		-0.347670
N 1.0  		0.40783713007170036 		0.4298005038360074  0.9231428571428572 		Uiso   ? 		N 		-0.347670
N 1.0  		0.9078825620676896 		0.4298005038360074  0.42314285714285715 		Uiso   ? 		N 		-0.347670
N 1.0  		0.9078825620676896 		0.4298005038360074  0.9231428571428572 		Uiso   ? 		N 		-0.347670
N 1.0  		0.007762916589108465 		0.629742940862802  0.42314285714285715 		Uiso   ? 		N 		-0.351646
N 1.0  		0.007762916589108465 		0.629742940862802  0.9231428571428572 		Uiso   ? 		N 		-0.351646
N 1.0  		0.5078083485850977 		0.629742940862802  0.42314285714285715 		Uiso   ? 		N 		-0.351646
N 1.0  		0.5078083485850977 		0.629742940862802  0.9231428571428572 		Uiso   ? 		N 		-0.351646
N 1.0  		0.1079234745315084 		0.8296853778895965  0.42314285714285715 		Uiso   ? 		N 		-0.352323
N 1.0  		0.1079234745315084 		0.8296853778895965  0.9231428571428572 		Uiso   ? 		N 		-0.352323
N 1.0  		0.6079689065274977 		0.8296853778895965  0.42314285714285715 		Uiso   ? 		N 		-0.352323
N 1.0  		0.6079689065274977 		0.8296853778895965  0.9231428571428572 		Uiso   ? 		N 		-0.352323
N 1.0  		0.0367318492265134 		0.0664581395799289  0.42314285714285715 		Uiso   ? 		N 		-0.416180
N 1.0  		0.0367318492265134 		0.0664581395799289  0.9231428571428572 		Uiso   ? 		N 		-0.416180
N 1.0  		0.5367772812225026 		0.0664581395799289  0.42314285714285715 		Uiso   ? 		N 		-0.416180
N 1.0  		0.5367772812225026 		0.0664581395799289  0.9231428571428572 		Uiso   ? 		N 		-0.416180
N 1.0  		0.13670306773991067 		0.2665899160357261  0.42314285714285715 		Uiso   ? 		N 		-0.418105
N 1.0  		0.13670306773991067 		0.2665899160357261  0.9231428571428572 		Uiso   ? 		N 		-0.418105
N 1.0  		0.6367484997358999 		0.2665899160357261  0.42314285714285715 		Uiso   ? 		N 		-0.418105
N 1.0  		0.6367484997358999 		0.2665899160357261  0.9231428571428572 		Uiso   ? 		N 		-0.418105
N 1.0  		0.236674286253308 		0.4665323530625208  0.42314285714285715 		Uiso   ? 		N 		-0.422543
N 1.0  		0.236674286253308 		0.4665323530625208  0.9231428571428572 		Uiso   ? 		N 		-0.422543
N 1.0  		0.7367197182492973 		0.4665323530625208  0.42314285714285715 		Uiso   ? 		N 		-0.422543
N 1.0  		0.7367197182492973 		0.4665323530625208  0.9231428571428572 		Uiso   ? 		N 		-0.422543
N 1.0  		0.3366455047667053 		0.6664747900893154  0.42314285714285715 		Uiso   ? 		N 		-0.419686
N 1.0  		0.3366455047667053 		0.6664747900893154  0.9231428571428572 		Uiso   ? 		N 		-0.419686
N 1.0  		0.8366909367626945 		0.6664747900893154  0.42314285714285715 		Uiso   ? 		N 		-0.419686
N 1.0  		0.8366909367626945 		0.6664747900893154  0.9231428571428572 		Uiso   ? 		N 		-0.419686
N 1.0  		0.4366167232801026 		0.8664172271161099  0.42314285714285715 		Uiso   ? 		N 		-0.421625
N 1.0  		0.4366167232801026 		0.8664172271161099  0.9231428571428572 		Uiso   ? 		N 		-0.421625
N 1.0  		0.9366621552760919 		0.8664172271161099  0.42314285714285715 		Uiso   ? 		N 		-0.421625
N 1.0  		0.9366621552760919 		0.8664172271161099  0.9231428571428572 		Uiso   ? 		N 		-0.421625
N 1.0  		0.41370665237078247 		0.049606930398693364  0.42314285714285715 		Uiso   ? 		N 		-0.487185
N 1.0  		0.41370665237078247 		0.049606930398693364  0.9231428571428572 		Uiso   ? 		N 		-0.487185
N 1.0  		0.9137520843667716 		0.049606930398693364  0.42314285714285715 		Uiso   ? 		N 		-0.487185
N 1.0  		0.9137520843667716 		0.049606930398693364  0.9231428571428572 		Uiso   ? 		N 		-0.487185
N 1.0  		0.013821778317193173 		0.24973870685449062  0.42314285714285715 		Uiso   ? 		N 		-0.488215
N 1.0  		0.013821778317193173 		0.24973870685449062  0.9231428571428572 		Uiso   ? 		N 		-0.488215
N 1.0  		0.5138672103131824 		0.24973870685449062  0.42314285714285715 		Uiso   ? 		N 		-0.488215
N 1.0  		0.5138672103131824 		0.24973870685449062  0.9231428571428572 		Uiso   ? 		N 		-0.488215
N 1.0  		0.11379299683059046 		0.4496811438812853  0.42314285714285715 		Uiso   ? 		N 		-0.488142
N 1.0  		0.11379299683059046 		0.4496811438812853  0.9231428571428572 		Uiso   ? 		N 		-0.488142
N 1.0  		0.6138384288265797 		0.4496811438812853  0.42314285714285715 		Uiso   ? 		N 		-0.488142
N 1.0  		0.6138384288265797 		0.4496811438812853  0.9231428571428572 		Uiso   ? 		N 		-0.488142
N 1.0  		0.2137642153439878 		0.6496235809080799  0.42314285714285715 		Uiso   ? 		N 		-0.485997
N 1.0  		0.2137642153439878 		0.6496235809080799  0.9231428571428572 		Uiso   ? 		N 		-0.485997
N 1.0  		0.713809647339977 		0.6496235809080799  0.42314285714285715 		Uiso   ? 		N 		-0.485997
N 1.0  		0.713809647339977 		0.6496235809080799  0.9231428571428572 		Uiso   ? 		N 		-0.485997
N 1.0  		0.31373543385738506 		0.8495660179348745  0.42314285714285715 		Uiso   ? 		N 		-0.487663
N 1.0  		0.31373543385738506 		0.8495660179348745  0.9231428571428572 		Uiso   ? 		N 		-0.487663
N 1.0  		0.8137808658533743 		0.8495660179348745  0.42314285714285715 		Uiso   ? 		N 		-0.487663
N 1.0  		0.8137808658533743 		0.8495660179348745  0.9231428571428572 		Uiso   ? 		N 		-0.487663
N 1.0  		0.3697799048421685 		0.06910889158596595  0.42314285714285715 		Uiso   ? 		N 		-0.533575
N 1.0  		0.3697799048421685 		0.06910889158596595  0.9231428571428572 		Uiso   ? 		N 		-0.533575
N 1.0  		0.8698253368381578 		0.06910889158596595  0.42314285714285715 		Uiso   ? 		N 		-0.533575
N 1.0  		0.8698253368381578 		0.06910889158596595  0.9231428571428572 		Uiso   ? 		N 		-0.533575
N 1.0  		0.46975112335556574 		0.2690513286127606  0.42314285714285715 		Uiso   ? 		N 		-0.532012
N 1.0  		0.46975112335556574 		0.2690513286127606  0.9231428571428572 		Uiso   ? 		N 		-0.532012
N 1.0  		0.969796555351555 		0.2690513286127606  0.42314285714285715 		Uiso   ? 		N 		-0.532012
N 1.0  		0.969796555351555 		0.2690513286127606  0.9231428571428572 		Uiso   ? 		N 		-0.532012
N 1.0  		0.0698662493019765 		0.46899376563955514  0.42314285714285715 		Uiso   ? 		N 		-0.532626
N 1.0  		0.0698662493019765 		0.46899376563955514  0.9231428571428572 		Uiso   ? 		N 		-0.532626
N 1.0  		0.5699116812979657 		0.46899376563955514  0.42314285714285715 		Uiso   ? 		N 		-0.532626
N 1.0  		0.5699116812979657 		0.46899376563955514  0.9231428571428572 		Uiso   ? 		N 		-0.532626
N 1.0  		0.16983746781537382 		0.6691255420953525  0.42314285714285715 		Uiso   ? 		N 		-0.535632
N 1.0  		0.16983746781537382 		0.6691255420953525  0.9231428571428572 		Uiso   ? 		N 		-0.535632
N 1.0  		0.669882899811363 		0.6691255420953525  0.42314285714285715 		Uiso   ? 		N 		-0.535632
N 1.0  		0.669882899811363 		0.6691255420953525  0.9231428571428572 		Uiso   ? 		N 		-0.535632
N 1.0  		0.2698086863287711 		0.8690679791221471  0.42314285714285715 		Uiso   ? 		N 		-0.536409
N 1.0  		0.2698086863287711 		0.8690679791221471  0.9231428571428572 		Uiso   ? 		N 		-0.536409
N 1.0  		0.7698541183247604 		0.8690679791221471  0.42314285714285715 		Uiso   ? 		N 		-0.536409
N 1.0  		0.7698541183247604 		0.8690679791221471  0.9231428571428572 		Uiso   ? 		N 		-0.536409
N 1.0  		0.2866598955100067 		0.0664581395799289  0.42314285714285715 		Uiso   ? 		N 		-0.418763
N 1.0  		0.2866598955100067 		0.0664581395799289  0.9231428571428572 		Uiso   ? 		N 		-0.418763
N 1.0  		0.786705327505996 		0.0664581395799289  0.42314285714285715 		Uiso   ? 		N 		-0.418763
N 1.0  		0.786705327505996 		0.0664581395799289  0.9231428571428572 		Uiso   ? 		N 		-0.418763
N 1.0  		0.3868204534524067 		0.2665899160357261  0.42314285714285715 		Uiso   ? 		N 		-0.418090
N 1.0  		0.3868204534524067 		0.2665899160357261  0.9231428571428572 		Uiso   ? 		N 		-0.418090
N 1.0  		0.8868658854483958 		0.2665899160357261  0.42314285714285715 		Uiso   ? 		N 		-0.418090
N 1.0  		0.8868658854483958 		0.2665899160357261  0.9231428571428572 		Uiso   ? 		N 		-0.418090
N 1.0  		0.4867916719658039 		0.4665323530625208  0.42314285714285715 		Uiso   ? 		N 		-0.416392
N 1.0  		0.4867916719658039 		0.4665323530625208  0.9231428571428572 		Uiso   ? 		N 		-0.416392
N 1.0  		0.9868371039617931 		0.4665323530625208  0.42314285714285715 		Uiso   ? 		N 		-0.416392
N 1.0  		0.9868371039617931 		0.4665323530625208  0.9231428571428572 		Uiso   ? 		N 		-0.416392
N 1.0  		0.08671745848321202 		0.6664747900893154  0.42314285714285715 		Uiso   ? 		N 		-0.420333
N 1.0  		0.08671745848321202 		0.6664747900893154  0.9231428571428572 		Uiso   ? 		N 		-0.420333
N 1.0  		0.5867628904792013 		0.6664747900893154  0.42314285714285715 		Uiso   ? 		N 		-0.420333
N 1.0  		0.5867628904792013 		0.6664747900893154  0.9231428571428572 		Uiso   ? 		N 		-0.420333
N 1.0  		0.18668867699660932 		0.8666065665451127  0.42314285714285715 		Uiso   ? 		N 		-0.423135
N 1.0  		0.18668867699660932 		0.8666065665451127  0.9231428571428572 		Uiso   ? 		N 		-0.423135
N 1.0  		0.6867341089925986 		0.8666065665451127  0.42314285714285715 		Uiso   ? 		N 		-0.423135
N 1.0  		0.6867341089925986 		0.8666065665451127  0.9231428571428572 		Uiso   ? 		N 		-0.423135
N 1.0  		0.23762098339832124 		0.18138717298453527  0.42314285714285715 		Uiso   ? 		N 		-0.372545
N 1.0  		0.23762098339832124 		0.18138717298453527  0.9231428571428572 		Uiso   ? 		N 		-0.372545
N 1.0  		0.7376664153943104 		0.18138717298453527  0.42314285714285715 		Uiso   ? 		N 		-0.372545
N 1.0  		0.7376664153943104 		0.18138717298453527  0.9231428571428572 		Uiso   ? 		N 		-0.372545
N 1.0  		0.33759220191171857 		0.38132961001132987  0.42314285714285715 		Uiso   ? 		N 		-0.372118
N 1.0  		0.33759220191171857 		0.38132961001132987  0.9231428571428572 		Uiso   ? 		N 		-0.372118
N 1.0  		0.8376376339077078 		0.38132961001132987  0.42314285714285715 		Uiso   ? 		N 		-0.372118
N 1.0  		0.8376376339077078 		0.38132961001132987  0.9231428571428572 		Uiso   ? 		N 		-0.372118
N 1.0  		0.4375634204251158 		0.5814613864671272  0.42314285714285715 		Uiso   ? 		N 		-0.375309
N 1.0  		0.4375634204251158 		0.5814613864671272  0.9231428571428572 		Uiso   ? 		N 		-0.375309
N 1.0  		0.937608852421105 		0.5814613864671272  0.42314285714285715 		Uiso   ? 		N 		-0.375309
N 1.0  		0.937608852421105 		0.5814613864671272  0.9231428571428572 		Uiso   ? 		N 		-0.375309
N 1.0  		0.037678546371526594 		0.7814038234939218  0.42314285714285715 		Uiso   ? 		N 		-0.372969
N 1.0  		0.037678546371526594 		0.7814038234939218  0.9231428571428572 		Uiso   ? 		N 		-0.372969
N 1.0  		0.5377239783675158 		0.7814038234939218  0.42314285714285715 		Uiso   ? 		N 		-0.372969
N 1.0  		0.5377239783675158 		0.7814038234939218  0.9231428571428572 		Uiso   ? 		N 		-0.372969
N 1.0  		0.1376497648849239 		0.9813462605207164  0.42314285714285715 		Uiso   ? 		N 		-0.372613
N 1.0  		0.1376497648849239 		0.9813462605207164  0.9231428571428572 		Uiso   ? 		N 		-0.372613
N 1.0  		0.637695196880913 		0.9813462605207164  0.42314285714285715 		Uiso   ? 		N 		-0.372613
N 1.0  		0.637695196880913 		0.9813462605207164  0.9231428571428572 		Uiso   ? 		N 		-0.372613
N 1.0  		0.16377860608728914 		0.049606930398693364  0.42314285714285715 		Uiso   ? 		N 		-0.488458
N 1.0  		0.16377860608728914 		0.049606930398693364  0.9231428571428572 		Uiso   ? 		N 		-0.488458
N 1.0  		0.6638240380832783 		0.049606930398693364  0.42314285714285715 		Uiso   ? 		N 		-0.488458
N 1.0  		0.6638240380832783 		0.049606930398693364  0.9231428571428572 		Uiso   ? 		N 		-0.488458
N 1.0  		0.2639391640296891 		0.24973870685449062  0.42314285714285715 		Uiso   ? 		N 		-0.485617
N 1.0  		0.2639391640296891 		0.24973870685449062  0.9231428571428572 		Uiso   ? 		N 		-0.485617
N 1.0  		0.7639845960256784 		0.24973870685449062  0.42314285714285715 		Uiso   ? 		N 		-0.485617
N 1.0  		0.7639845960256784 		0.24973870685449062  0.9231428571428572 		Uiso   ? 		N 		-0.485617
N 1.0  		0.3639103825430864 		0.4496811438812853  0.42314285714285715 		Uiso   ? 		N 		-0.486730
N 1.0  		0.3639103825430864 		0.4496811438812853  0.9231428571428572 		Uiso   ? 		N 		-0.486730
N 1.0  		0.8639558145390756 		0.4496811438812853  0.42314285714285715 		Uiso   ? 		N 		-0.486730
N 1.0  		0.8639558145390756 		0.4496811438812853  0.9231428571428572 		Uiso   ? 		N 		-0.486730
N 1.0  		0.46388160105648374 		0.6496235809080799  0.42314285714285715 		Uiso   ? 		N 		-0.483745
N 1.0  		0.46388160105648374 		0.6496235809080799  0.9231428571428572 		Uiso   ? 		N 		-0.483745
N 1.0  		0.963927033052473 		0.6496235809080799  0.42314285714285715 		Uiso   ? 		N 		-0.483745
N 1.0  		0.963927033052473 		0.6496235809080799  0.9231428571428572 		Uiso   ? 		N 		-0.483745
N 1.0  		0.06380738757389179 		0.8497553573638772  0.42314285714285715 		Uiso   ? 		N 		-0.487159
N 1.0  		0.06380738757389179 		0.8497553573638772  0.9231428571428572 		Uiso   ? 		N 		-0.487159
N 1.0  		0.5638528195698811 		0.8497553573638772  0.42314285714285715 		Uiso   ? 		N 		-0.487159
N 1.0  		0.5638528195698811 		0.8497553573638772  0.9231428571428572 		Uiso   ? 		N 		-0.487159
N 1.0  		0.12818279343479164 		0.024803465199346682  0.42314285714285715 		Uiso   ? 		N 		-0.280440
N 1.0  		0.12818279343479164 		0.024803465199346682  0.9231428571428572 		Uiso   ? 		N 		-0.280440
N 1.0  		0.6282282254307808 		0.024803465199346682  0.42314285714285715 		Uiso   ? 		N 		-0.280440
N 1.0  		0.6282282254307808 		0.024803465199346682  0.9231428571428572 		Uiso   ? 		N 		-0.280440
N 1.0  		0.4544146296063514 		0.07270634073701623  0.42314285714285715 		Uiso   ? 		N 		-0.374976
N 1.0  		0.4544146296063514 		0.07270634073701623  0.9231428571428572 		Uiso   ? 		N 		-0.374976
N 1.0  		0.9544600616023406 		0.07270634073701623  0.42314285714285715 		Uiso   ? 		N 		-0.374976
N 1.0  		0.9544600616023406 		0.07270634073701623  0.9231428571428572 		Uiso   ? 		N 		-0.374976
N 1.0  		0.22815401194818896 		0.22474590222614133  0.42314285714285715 		Uiso   ? 		N 		-0.276297
N 1.0  		0.22815401194818896 		0.22474590222614133  0.9231428571428572 		Uiso   ? 		N 		-0.276297
N 1.0  		0.7281994439441781 		0.22474590222614133  0.42314285714285715 		Uiso   ? 		N 		-0.276297
N 1.0  		0.7281994439441781 		0.22474590222614133  0.9231428571428572 		Uiso   ? 		N 		-0.276297
N 1.0  		0.054529755552762155 		0.2728381171928135  0.42314285714285715 		Uiso   ? 		N 		-0.374808
N 1.0  		0.054529755552762155 		0.2728381171928135  0.9231428571428572 		Uiso   ? 		N 		-0.374808
N 1.0  		0.5545751875487513 		0.2728381171928135  0.42314285714285715 		Uiso   ? 		N 		-0.374808
N 1.0  		0.5545751875487513 		0.2728381171928135  0.9231428571428572 		Uiso   ? 		N 		-0.374808
N 1.0  		0.32812523046158626 		0.4248776786819386  0.42314285714285715 		Uiso   ? 		N 		-0.278067
N 1.0  		0.32812523046158626 		0.4248776786819386  0.9231428571428572 		Uiso   ? 		N 		-0.278067
N 1.0  		0.8281706624575754 		0.4248776786819386  0.42314285714285715 		Uiso   ? 		N 		-0.278067
N 1.0  		0.8281706624575754 		0.4248776786819386  0.9231428571428572 		Uiso   ? 		N 		-0.278067
N 1.0  		0.15450097406615945 		0.4727805542196081  0.42314285714285715 		Uiso   ? 		N 		-0.372788
N 1.0  		0.15450097406615945 		0.4727805542196081  0.9231428571428572 		Uiso   ? 		N 		-0.372788
N 1.0  		0.6545464060621486 		0.4727805542196081  0.42314285714285715 		Uiso   ? 		N 		-0.372788
N 1.0  		0.6545464060621486 		0.4727805542196081  0.9231428571428572 		Uiso   ? 		N 		-0.372788
N 1.0  		0.4280964489749835 		0.6248201157087332  0.42314285714285715 		Uiso   ? 		N 		-0.280224
N 1.0  		0.4280964489749835 		0.6248201157087332  0.9231428571428572 		Uiso   ? 		N 		-0.280224
N 1.0  		0.9281418809709728 		0.6248201157087332  0.42314285714285715 		Uiso   ? 		N 		-0.280224
N 1.0  		0.9281418809709728 		0.6248201157087332  0.9231428571428572 		Uiso   ? 		N 		-0.280224
N 1.0  		0.2544721925795568 		0.6727229912464028  0.42314285714285715 		Uiso   ? 		N 		-0.371094
N 1.0  		0.2544721925795568 		0.6727229912464028  0.9231428571428572 		Uiso   ? 		N 		-0.371094
N 1.0  		0.7545176245755459 		0.6727229912464028  0.42314285714285715 		Uiso   ? 		N 		-0.371094
N 1.0  		0.7545176245755459 		0.6727229912464028  0.9231428571428572 		Uiso   ? 		N 		-0.371094
N 1.0  		0.028211574921394263 		0.8247625527355278  0.42314285714285715 		Uiso   ? 		N 		-0.281693
N 1.0  		0.028211574921394263 		0.8247625527355278  0.9231428571428572 		Uiso   ? 		N 		-0.281693
N 1.0  		0.5282570069173835 		0.8247625527355278  0.42314285714285715 		Uiso   ? 		N 		-0.281693
N 1.0  		0.5282570069173835 		0.8247625527355278  0.9231428571428572 		Uiso   ? 		N 		-0.281693
N 1.0  		0.3544434110929541 		0.8728547677022  0.42314285714285715 		Uiso   ? 		N 		-0.377467
N 1.0  		0.3544434110929541 		0.8728547677022  0.9231428571428572 		Uiso   ? 		N 		-0.377467
N 1.0  		0.8544888430889432 		0.8728547677022  0.42314285714285715 		Uiso   ? 		N 		-0.377467
N 1.0  		0.8544888430889432 		0.8728547677022  0.9231428571428572 		Uiso   ? 		N 		-0.377467
N 1.0  		0.3410003116337662 		0.00037867885800529287  0.42314285714285715 		Uiso   ? 		N 		-0.458062
N 1.0  		0.3410003116337662 		0.00037867885800529287  0.9231428571428572 		Uiso   ? 		N 		-0.458062
N 1.0  		0.8410457436297555 		0.00037867885800529287  0.42314285714285715 		Uiso   ? 		N 		-0.458062
N 1.0  		0.8410457436297555 		0.00037867885800529287  0.9231428571428572 		Uiso   ? 		N 		-0.458062
N 1.0  		0.44097153014716356 		0.20032111588479992  0.42314285714285715 		Uiso   ? 		N 		-0.455876
N 1.0  		0.44097153014716356 		0.20032111588479992  0.9231428571428572 		Uiso   ? 		N 		-0.455876
N 1.0  		0.9410169621431527 		0.20032111588479992  0.42314285714285715 		Uiso   ? 		N 		-0.455876
N 1.0  		0.9410169621431527 		0.20032111588479992  0.9231428571428572 		Uiso   ? 		N 		-0.455876
N 1.0  		0.041086656093574245 		0.4002635529115945  0.42314285714285715 		Uiso   ? 		N 		-0.458336
N 1.0  		0.041086656093574245 		0.4002635529115945  0.9231428571428572 		Uiso   ? 		N 		-0.458336
N 1.0  		0.5411320880895635 		0.4002635529115945  0.42314285714285715 		Uiso   ? 		N 		-0.458336
N 1.0  		0.5411320880895635 		0.4002635529115945  0.9231428571428572 		Uiso   ? 		N 		-0.458336
N 1.0  		0.14105787460697156 		0.6003953293673918  0.42314285714285715 		Uiso   ? 		N 		-0.455745
N 1.0  		0.14105787460697156 		0.6003953293673918  0.9231428571428572 		Uiso   ? 		N 		-0.455745
N 1.0  		0.6411033066029608 		0.6003953293673918  0.42314285714285715 		Uiso   ? 		N 		-0.455745
N 1.0  		0.6411033066029608 		0.6003953293673918  0.9231428571428572 		Uiso   ? 		N 		-0.455745
N 1.0  		0.24102909312036883 		0.8003377663941865  0.42314285714285715 		Uiso   ? 		N 		-0.457424
N 1.0  		0.24102909312036883 		0.8003377663941865  0.9231428571428572 		Uiso   ? 		N 		-0.457424
N 1.0  		0.7410745251163581 		0.8003377663941865  0.42314285714285715 		Uiso   ? 		N 		-0.457424
N 1.0  		0.7410745251163581 		0.8003377663941865  0.9231428571428572 		Uiso   ? 		N 		-0.457424
N 1.0  		0.33304805561565504 		0.04335872924160603  0.42314285714285715 		Uiso   ? 		N 		-0.418318
N 1.0  		0.33304805561565504 		0.04335872924160603  0.9231428571428572 		Uiso   ? 		N 		-0.418318
N 1.0  		0.8330934876116444 		0.04335872924160603  0.42314285714285715 		Uiso   ? 		N 		-0.418318
N 1.0  		0.8330934876116444 		0.04335872924160603  0.9231428571428572 		Uiso   ? 		N 		-0.418318
N 1.0  		0.24481588170042182 		0.09145094420827822  0.42314285714285715 		Uiso   ? 		N 		-0.278288
N 1.0  		0.24481588170042182 		0.09145094420827822  0.9231428571428572 		Uiso   ? 		N 		-0.278288
N 1.0  		0.7448613136964111 		0.09145094420827822  0.42314285714285715 		Uiso   ? 		N 		-0.278288
N 1.0  		0.7448613136964111 		0.09145094420827822  0.9231428571428572 		Uiso   ? 		N 		-0.278288
N 1.0  		0.43301927412905233 		0.24330116626840065  0.42314285714285715 		Uiso   ? 		N 		-0.418068
N 1.0  		0.43301927412905233 		0.24330116626840065  0.9231428571428572 		Uiso   ? 		N 		-0.418068
N 1.0  		0.9330647061250416 		0.24330116626840065  0.42314285714285715 		Uiso   ? 		N 		-0.418068
N 1.0  		0.9330647061250416 		0.24330116626840065  0.9231428571428572 		Uiso   ? 		N 		-0.418068
N 1.0  		0.3449764396428218 		0.29139338123507286  0.42314285714285715 		Uiso   ? 		N 		-0.276408
N 1.0  		0.3449764396428218 		0.29139338123507286  0.9231428571428572 		Uiso   ? 		N 		-0.276408
N 1.0  		0.845021871638811 		0.29139338123507286  0.42314285714285715 		Uiso   ? 		N 		-0.276408
N 1.0  		0.845021871638811 		0.29139338123507286  0.9231428571428572 		Uiso   ? 		N 		-0.276408
N 1.0  		0.033134400075463095 		0.4432436032951953  0.42314285714285715 		Uiso   ? 		N 		-0.421244
N 1.0  		0.033134400075463095 		0.4432436032951953  0.9231428571428572 		Uiso   ? 		N 		-0.421244
N 1.0  		0.5331798320714523 		0.4432436032951953  0.42314285714285715 		Uiso   ? 		N 		-0.421244
N 1.0  		0.5331798320714523 		0.4432436032951953  0.9231428571428572 		Uiso   ? 		N 		-0.421244
N 1.0  		0.44494765815621906 		0.49152515769087013  0.42314285714285715 		Uiso   ? 		N 		-0.280312
N 1.0  		0.44494765815621906 		0.49152515769087013  0.9231428571428572 		Uiso   ? 		N 		-0.280312
N 1.0  		0.9449930901522082 		0.49152515769087013  0.42314285714285715 		Uiso   ? 		N 		-0.280312
N 1.0  		0.9449930901522082 		0.49152515769087013  0.9231428571428572 		Uiso   ? 		N 		-0.280312
N 1.0  		0.13310561858886039 		0.6433753797509926  0.42314285714285715 		Uiso   ? 		N 		-0.418540
N 1.0  		0.13310561858886039 		0.6433753797509926  0.9231428571428572 		Uiso   ? 		N 		-0.418540
N 1.0  		0.6331510505848497 		0.6433753797509926  0.42314285714285715 		Uiso   ? 		N 		-0.418540
N 1.0  		0.6331510505848497 		0.6433753797509926  0.9231428571428572 		Uiso   ? 		N 		-0.418540
N 1.0  		0.04487344467362716 		0.6914675947176647  0.42314285714285715 		Uiso   ? 		N 		-0.278455
N 1.0  		0.04487344467362716 		0.6914675947176647  0.9231428571428572 		Uiso   ? 		N 		-0.278455
N 1.0  		0.5449188766696165 		0.6914675947176647  0.42314285714285715 		Uiso   ? 		N 		-0.278455
N 1.0  		0.5449188766696165 		0.6914675947176647  0.9231428571428572 		Uiso   ? 		N 		-0.278455
N 1.0  		0.2330768371022577 		0.8433178167777872  0.42314285714285715 		Uiso   ? 		N 		-0.419676
N 1.0  		0.2330768371022577 		0.8433178167777872  0.9231428571428572 		Uiso   ? 		N 		-0.419676
N 1.0  		0.733122269098247 		0.8433178167777872  0.42314285714285715 		Uiso   ? 		N 		-0.419676
N 1.0  		0.733122269098247 		0.8433178167777872  0.9231428571428572 		Uiso   ? 		N 		-0.419676
N 1.0  		0.14484466318702446 		0.8914100317444594  0.42314285714285715 		Uiso   ? 		N 		-0.278020
N 1.0  		0.14484466318702446 		0.8914100317444594  0.9231428571428572 		Uiso   ? 		N 		-0.278020
N 1.0  		0.6448900951830138 		0.8914100317444594  0.42314285714285715 		Uiso   ? 		N 		-0.278020
N 1.0  		0.6448900951830138 		0.8914100317444594  0.9231428571428572 		Uiso   ? 		N 		-0.278020
N 1.0  		0.4949332674129177 		0.09145094420827822  0.42314285714285715 		Uiso   ? 		N 		-0.275726
N 1.0  		0.4949332674129177 		0.09145094420827822  0.9231428571428572 		Uiso   ? 		N 		-0.275726
N 1.0  		0.9949786994089069 		0.09145094420827822  0.42314285714285715 		Uiso   ? 		N 		-0.275726
N 1.0  		0.9949786994089069 		0.09145094420827822  0.9231428571428572 		Uiso   ? 		N 		-0.275726
N 1.0  		0.09485905393032584 		0.29139338123507286  0.42314285714285715 		Uiso   ? 		N 		-0.282119
N 1.0  		0.09485905393032584 		0.29139338123507286  0.9231428571428572 		Uiso   ? 		N 		-0.282119
N 1.0  		0.5949044859263151 		0.29139338123507286  0.42314285714285715 		Uiso   ? 		N 		-0.282119
N 1.0  		0.5949044859263151 		0.29139338123507286  0.9231428571428572 		Uiso   ? 		N 		-0.282119
N 1.0  		0.1948302724437231 		0.4913358182618675  0.42314285714285715 		Uiso   ? 		N 		-0.279017
N 1.0  		0.1948302724437231 		0.4913358182618675  0.9231428571428572 		Uiso   ? 		N 		-0.279017
N 1.0  		0.6948757044397124 		0.4913358182618675  0.42314285714285715 		Uiso   ? 		N 		-0.279017
N 1.0  		0.6948757044397124 		0.4913358182618675  0.9231428571428572 		Uiso   ? 		N 		-0.279017
N 1.0  		0.29480149095712044 		0.691278255288662  0.42314285714285715 		Uiso   ? 		N 		-0.273533
N 1.0  		0.29480149095712044 		0.691278255288662  0.9231428571428572 		Uiso   ? 		N 		-0.273533
N 1.0  		0.7948469229531098 		0.691278255288662  0.42314285714285715 		Uiso   ? 		N 		-0.273533
N 1.0  		0.7948469229531098 		0.691278255288662  0.9231428571428572 		Uiso   ? 		N 		-0.273533
N 1.0  		0.39477270947051774 		0.8914100317444594  0.42314285714285715 		Uiso   ? 		N 		-0.279161
N 1.0  		0.39477270947051774 		0.8914100317444594  0.9231428571428572 		Uiso   ? 		N 		-0.279161
N 1.0  		0.894818141466507 		0.8914100317444594  0.42314285714285715 		Uiso   ? 		N 		-0.279161
N 1.0  		0.894818141466507 		0.8914100317444594  0.9231428571428572 		Uiso   ? 		N 		-0.279161
N 1.0  		0.3781108397182849 		0.024803465199346682  0.42314285714285715 		Uiso   ? 		N 		-0.279654
N 1.0  		0.3781108397182849 		0.024803465199346682  0.9231428571428572 		Uiso   ? 		N 		-0.279654
N 1.0  		0.8781562717142741 		0.024803465199346682  0.42314285714285715 		Uiso   ? 		N 		-0.279654
N 1.0  		0.8781562717142741 		0.024803465199346682  0.9231428571428572 		Uiso   ? 		N 		-0.279654
N 1.0  		0.4780820582316822 		0.22474590222614133  0.42314285714285715 		Uiso   ? 		N 		-0.279998
N 1.0  		0.4780820582316822 		0.22474590222614133  0.9231428571428572 		Uiso   ? 		N 		-0.279998
N 1.0  		0.9781274902276715 		0.22474590222614133  0.42314285714285715 		Uiso   ? 		N 		-0.279998
N 1.0  		0.9781274902276715 		0.22474590222614133  0.9231428571428572 		Uiso   ? 		N 		-0.279998
N 1.0  		0.07819718417809295 		0.4246883392529359  0.42314285714285715 		Uiso   ? 		N 		-0.280780
N 1.0  		0.07819718417809295 		0.4246883392529359  0.9231428571428572 		Uiso   ? 		N 		-0.280780
N 1.0  		0.5782426161740821 		0.4246883392529359  0.42314285714285715 		Uiso   ? 		N 		-0.280780
N 1.0  		0.5782426161740821 		0.4246883392529359  0.9231428571428572 		Uiso   ? 		N 		-0.280780
N 1.0  		0.17816840269149026 		0.6248201157087332  0.42314285714285715 		Uiso   ? 		N 		-0.278454
N 1.0  		0.17816840269149026 		0.6248201157087332  0.9231428571428572 		Uiso   ? 		N 		-0.278454
N 1.0  		0.6782138346874794 		0.6248201157087332  0.42314285714285715 		Uiso   ? 		N 		-0.278454
N 1.0  		0.6782138346874794 		0.6248201157087332  0.9231428571428572 		Uiso   ? 		N 		-0.278454
N 1.0  		0.27813962120488755 		0.8247625527355278  0.42314285714285715 		Uiso   ? 		N 		-0.281717
N 1.0  		0.27813962120488755 		0.8247625527355278  0.9231428571428572 		Uiso   ? 		N 		-0.281717
N 1.0  		0.7781850532008768 		0.8247625527355278  0.42314285714285715 		Uiso   ? 		N 		-0.281717
N 1.0  		0.7781850532008768 		0.8247625527355278  0.9231428571428572 		Uiso   ? 		N 		-0.281717
N 1.0  		0.45157453817131166 		0.11568639112061696  0.42314285714285715 		Uiso   ? 		N 		-0.425908
N 1.0  		0.45157453817131166 		0.11568639112061696  0.9231428571428572 		Uiso   ? 		N 		-0.425908
N 1.0  		0.9516199701673009 		0.11568639112061696  0.42314285714285715 		Uiso   ? 		N 		-0.425908
N 1.0  		0.9516199701673009 		0.11568639112061696  0.9231428571428572 		Uiso   ? 		N 		-0.425908
N 1.0  		0.05168966411772245 		0.31581816757641423  0.42314285714285715 		Uiso   ? 		N 		-0.430169
N 1.0  		0.05168966411772245 		0.31581816757641423  0.9231428571428572 		Uiso   ? 		N 		-0.430169
N 1.0  		0.5517350961137117 		0.31581816757641423  0.42314285714285715 		Uiso   ? 		N 		-0.430169
N 1.0  		0.5517350961137117 		0.31581816757641423  0.9231428571428572 		Uiso   ? 		N 		-0.430169
N 1.0  		0.15166088263111976 		0.5157606046032089  0.42314285714285715 		Uiso   ? 		N 		-0.429960
N 1.0  		0.15166088263111976 		0.5157606046032089  0.9231428571428572 		Uiso   ? 		N 		-0.429960
N 1.0  		0.651706314627109 		0.5157606046032089  0.42314285714285715 		Uiso   ? 		N 		-0.429960
N 1.0  		0.651706314627109 		0.5157606046032089  0.9231428571428572 		Uiso   ? 		N 		-0.429960
N 1.0  		0.251632101144517 		0.7157030416300034  0.42314285714285715 		Uiso   ? 		N 		-0.431190
N 1.0  		0.251632101144517 		0.7157030416300034  0.9231428571428572 		Uiso   ? 		N 		-0.431190
N 1.0  		0.7516775331405063 		0.7157030416300034  0.42314285714285715 		Uiso   ? 		N 		-0.431190
N 1.0  		0.7516775331405063 		0.7157030416300034  0.9231428571428572 		Uiso   ? 		N 		-0.431190
N 1.0  		0.35160331965791436 		0.9158348180858007  0.42314285714285715 		Uiso   ? 		N 		-0.430493
N 1.0  		0.35160331965791436 		0.9158348180858007  0.9231428571428572 		Uiso   ? 		N 		-0.430493
N 1.0  		0.8516487516539035 		0.9158348180858007  0.42314285714285715 		Uiso   ? 		N 		-0.430493
N 1.0  		0.8516487516539035 		0.9158348180858007  0.9231428571428572 		Uiso   ? 		N 		-0.430493
N 1.0  		0.49341855198089657 		0.13480967344988426  0.42314285714285715 		Uiso   ? 		N 		-0.483516
N 1.0  		0.49341855198089657 		0.13480967344988426  0.9231428571428572 		Uiso   ? 		N 		-0.483516
N 1.0  		0.9934639839768857 		0.13480967344988426  0.42314285714285715 		Uiso   ? 		N 		-0.483516
N 1.0  		0.9934639839768857 		0.13480967344988426  0.9231428571428572 		Uiso   ? 		N 		-0.483516
N 1.0  		0.09334433849830467 		0.33475211047667885  0.42314285714285715 		Uiso   ? 		N 		-0.490242
N 1.0  		0.09334433849830467 		0.33475211047667885  0.9231428571428572 		Uiso   ? 		N 		-0.490242
N 1.0  		0.5933897704942939 		0.33475211047667885  0.42314285714285715 		Uiso   ? 		N 		-0.490242
N 1.0  		0.5933897704942939 		0.33475211047667885  0.9231428571428572 		Uiso   ? 		N 		-0.490242
N 1.0  		0.19331555701170194 		0.5348838869324761  0.42314285714285715 		Uiso   ? 		N 		-0.485765
N 1.0  		0.19331555701170194 		0.5348838869324761  0.9231428571428572 		Uiso   ? 		N 		-0.485765
N 1.0  		0.6933609890076912 		0.5348838869324761  0.42314285714285715 		Uiso   ? 		N 		-0.485765
N 1.0  		0.6933609890076912 		0.5348838869324761  0.9231428571428572 		Uiso   ? 		N 		-0.485765
N 1.0  		0.29328677552509924 		0.7348263239592707  0.42314285714285715 		Uiso   ? 		N 		-0.489402
N 1.0  		0.29328677552509924 		0.7348263239592707  0.9231428571428572 		Uiso   ? 		N 		-0.489402
N 1.0  		0.7933322075210886 		0.7348263239592707  0.42314285714285715 		Uiso   ? 		N 		-0.489402
N 1.0  		0.7933322075210886 		0.7348263239592707  0.9231428571428572 		Uiso   ? 		N 		-0.489402
N 1.0  		0.39325799403849654 		0.9347687609860654  0.42314285714285715 		Uiso   ? 		N 		-0.488178
N 1.0  		0.39325799403849654 		0.9347687609860654  0.9231428571428572 		Uiso   ? 		N 		-0.488178
N 1.0  		0.8933034260344858 		0.9347687609860654  0.42314285714285715 		Uiso   ? 		N 		-0.488178
N 1.0  		0.8933034260344858 		0.9347687609860654  0.9231428571428572 		Uiso   ? 		N 		-0.488178
N 1.0  		0.24765597313546153 		0.04714551782165896  0.42314285714285715 		Uiso   ? 		N 		-0.456047
N 1.0  		0.24765597313546153 		0.04714551782165896  0.9231428571428572 		Uiso   ? 		N 		-0.456047
N 1.0  		0.7477014051314507 		0.04714551782165896  0.42314285714285715 		Uiso   ? 		N 		-0.456047
N 1.0  		0.7477014051314507 		0.04714551782165896  0.9231428571428572 		Uiso   ? 		N 		-0.456047
N 1.0  		0.34762719164885886 		0.24708795484845356  0.42314285714285715 		Uiso   ? 		N 		-0.454510
N 1.0  		0.34762719164885886 		0.24708795484845356  0.9231428571428572 		Uiso   ? 		N 		-0.454510
N 1.0  		0.8476726236448481 		0.24708795484845356  0.42314285714285715 		Uiso   ? 		N 		-0.454510
N 1.0  		0.8476726236448481 		0.24708795484845356  0.9231428571428572 		Uiso   ? 		N 		-0.454510
N 1.0  		0.4475984101622561 		0.44721973130425086  0.42314285714285715 		Uiso   ? 		N 		-0.458873
N 1.0  		0.4475984101622561 		0.44721973130425086  0.9231428571428572 		Uiso   ? 		N 		-0.458873
N 1.0  		0.9476438421582454 		0.44721973130425086  0.42314285714285715 		Uiso   ? 		N 		-0.458873
N 1.0  		0.9476438421582454 		0.44721973130425086  0.9231428571428572 		Uiso   ? 		N 		-0.458873
N 1.0  		0.04752419667966421 		0.6471621683310455  0.42314285714285715 		Uiso   ? 		N 		-0.459233
N 1.0  		0.04752419667966421 		0.6471621683310455  0.9231428571428572 		Uiso   ? 		N 		-0.459233
N 1.0  		0.5475696286756534 		0.6471621683310455  0.42314285714285715 		Uiso   ? 		N 		-0.459233
N 1.0  		0.5475696286756534 		0.6471621683310455  0.9231428571428572 		Uiso   ? 		N 		-0.459233
N 1.0  		0.14768475462206415 		0.8471046053578402  0.42314285714285715 		Uiso   ? 		N 		-0.456427
N 1.0  		0.14768475462206415 		0.8471046053578402  0.9231428571428572 		Uiso   ? 		N 		-0.456427
N 1.0  		0.6477301866180534 		0.8471046053578402  0.42314285714285715 		Uiso   ? 		N 		-0.456427
N 1.0  		0.6477301866180534 		0.8471046053578402  0.9231428571428572 		Uiso   ? 		N 		-0.456427
N 1.0  		0.2434905056974033 		0.13499901287888688  0.42314285714285715 		Uiso   ? 		N 		-0.482476
N 1.0  		0.2434905056974033 		0.13499901287888688  0.9231428571428572 		Uiso   ? 		N 		-0.482476
N 1.0  		0.7435359376933925 		0.13499901287888688  0.42314285714285715 		Uiso   ? 		N 		-0.482476
N 1.0  		0.7435359376933925 		0.13499901287888688  0.9231428571428572 		Uiso   ? 		N 		-0.482476
N 1.0  		0.3434617242108006 		0.3349414499056815  0.42314285714285715 		Uiso   ? 		N 		-0.482043
N 1.0  		0.3434617242108006 		0.3349414499056815  0.9231428571428572 		Uiso   ? 		N 		-0.482043
N 1.0  		0.8435071562067898 		0.3349414499056815  0.42314285714285715 		Uiso   ? 		N 		-0.482043
N 1.0  		0.8435071562067898 		0.3349414499056815  0.9231428571428572 		Uiso   ? 		N 		-0.482043
N 1.0  		0.44343294272419786 		0.5348838869324761  0.42314285714285715 		Uiso   ? 		N 		-0.490420
N 1.0  		0.44343294272419786 		0.5348838869324761  0.9231428571428572 		Uiso   ? 		N 		-0.490420
N 1.0  		0.943478374720187 		0.5348838869324761  0.42314285714285715 		Uiso   ? 		N 		-0.490420
N 1.0  		0.943478374720187 		0.5348838869324761  0.9231428571428572 		Uiso   ? 		N 		-0.490420
N 1.0  		0.04354806867060864 		0.7350156633882734  0.42314285714285715 		Uiso   ? 		N 		-0.486840
N 1.0  		0.04354806867060864 		0.7350156633882734  0.9231428571428572 		Uiso   ? 		N 		-0.486840
N 1.0  		0.5435935006665978 		0.7350156633882734  0.42314285714285715 		Uiso   ? 		N 		-0.486840
N 1.0  		0.5435935006665978 		0.7350156633882734  0.9231428571428572 		Uiso   ? 		N 		-0.486840
N 1.0  		0.14351928718400594 		0.934958100415068  0.42314285714285715 		Uiso   ? 		N 		-0.486161
N 1.0  		0.14351928718400594 		0.934958100415068  0.9231428571428572 		Uiso   ? 		N 		-0.486161
N 1.0  		0.6435647191799951 		0.934958100415068  0.42314285714285715 		Uiso   ? 		N 		-0.486161
N 1.0  		0.6435647191799951 		0.934958100415068  0.9231428571428572 		Uiso   ? 		N 		-0.486161
N 1.0  		0.20448658332285816 		0.07289568016601887  0.42314285714285715 		Uiso   ? 		N 		-0.374445
N 1.0  		0.20448658332285816 		0.07289568016601887  0.9231428571428572 		Uiso   ? 		N 		-0.374445
N 1.0  		0.7045320153188473 		0.07289568016601887  0.42314285714285715 		Uiso   ? 		N 		-0.374445
N 1.0  		0.7045320153188473 		0.07289568016601887  0.9231428571428572 		Uiso   ? 		N 		-0.374445
N 1.0  		0.3044578018362555 		0.2728381171928135  0.42314285714285715 		Uiso   ? 		N 		-0.372387
N 1.0  		0.3044578018362555 		0.2728381171928135  0.9231428571428572 		Uiso   ? 		N 		-0.372387
N 1.0  		0.8045032338322445 		0.2728381171928135  0.42314285714285715 		Uiso   ? 		N 		-0.372387
N 1.0  		0.8045032338322445 		0.2728381171928135  0.9231428571428572 		Uiso   ? 		N 		-0.372387
N 1.0  		0.4044290203496527 		0.4729698936486108  0.42314285714285715 		Uiso   ? 		N 		-0.373668
N 1.0  		0.4044290203496527 		0.4729698936486108  0.9231428571428572 		Uiso   ? 		N 		-0.373668
N 1.0  		0.9044744523456419 		0.4729698936486108  0.42314285714285715 		Uiso   ? 		N 		-0.373668
N 1.0  		0.9044744523456419 		0.4729698936486108  0.9231428571428572 		Uiso   ? 		N 		-0.373668
N 1.0  		0.004544146296063473 		0.6729123306754053  0.42314285714285715 		Uiso   ? 		N 		-0.375271
N 1.0  		0.004544146296063473 		0.6729123306754053  0.9231428571428572 		Uiso   ? 		N 		-0.375271
N 1.0  		0.5045895782920528 		0.6729123306754053  0.42314285714285715 		Uiso   ? 		N 		-0.375271
N 1.0  		0.5045895782920528 		0.6729123306754053  0.9231428571428572 		Uiso   ? 		N 		-0.375271
N 1.0  		0.10451536480946078 		0.8728547677022  0.42314285714285715 		Uiso   ? 		N 		-0.372782
N 1.0  		0.10451536480946078 		0.8728547677022  0.9231428571428572 		Uiso   ? 		N 		-0.372782
N 1.0  		0.60456079680545 		0.8728547677022  0.42314285714285715 		Uiso   ? 		N 		-0.372782
N 1.0  		0.60456079680545 		0.8728547677022  0.9231428571428572 		Uiso   ? 		N 		-0.372782
N 1.0  		0.08312000933216178 		0.04335872924160603  0.42314285714285715 		Uiso   ? 		N 		-0.418994
N 1.0  		0.08312000933216178 		0.04335872924160603  0.9231428571428572 		Uiso   ? 		N 		-0.418994
N 1.0  		0.583165441328151 		0.04335872924160603  0.42314285714285715 		Uiso   ? 		N 		-0.418994
N 1.0  		0.583165441328151 		0.04335872924160603  0.9231428571428572 		Uiso   ? 		N 		-0.418994
N 1.0  		0.18309122784555906 		0.24330116626840065  0.42314285714285715 		Uiso   ? 		N 		-0.417965
N 1.0  		0.18309122784555906 		0.24330116626840065  0.9231428571428572 		Uiso   ? 		N 		-0.417965
N 1.0  		0.6831366598415483 		0.24330116626840065  0.42314285714285715 		Uiso   ? 		N 		-0.417965
N 1.0  		0.6831366598415483 		0.24330116626840065  0.9231428571428572 		Uiso   ? 		N 		-0.417965
N 1.0  		0.28306244635895644 		0.4434329427241979  0.42314285714285715 		Uiso   ? 		N 		-0.414645
N 1.0  		0.28306244635895644 		0.4434329427241979  0.9231428571428572 		Uiso   ? 		N 		-0.414645
N 1.0  		0.7831078783549457 		0.4434329427241979  0.42314285714285715 		Uiso   ? 		N 		-0.414645
N 1.0  		0.7831078783549457 		0.4434329427241979  0.9231428571428572 		Uiso   ? 		N 		-0.414645
N 1.0  		0.3832230043013563 		0.6433753797509926  0.42314285714285715 		Uiso   ? 		N 		-0.419185
N 1.0  		0.3832230043013563 		0.6433753797509926  0.9231428571428572 		Uiso   ? 		N 		-0.419185
N 1.0  		0.8832684362973455 		0.6433753797509926  0.42314285714285715 		Uiso   ? 		N 		-0.419185
N 1.0  		0.8832684362973455 		0.6433753797509926  0.9231428571428572 		Uiso   ? 		N 		-0.419185
N 1.0  		0.4831942228147536 		0.8433178167777872  0.42314285714285715 		Uiso   ? 		N 		-0.420469
N 1.0  		0.4831942228147536 		0.8433178167777872  0.9231428571428572 		Uiso   ? 		N 		-0.420469
N 1.0  		0.9832396548107428 		0.8433178167777872  0.42314285714285715 		Uiso   ? 		N 		-0.420469
N 1.0  		0.9832396548107428 		0.8433178167777872  0.9231428571428572 		Uiso   ? 		N 		-0.420469
N 1.0  		0.11985185855867518 		0.06910889158596595  0.42314285714285715 		Uiso   ? 		N 		-0.535830
N 1.0  		0.11985185855867518 		0.06910889158596595  0.9231428571428572 		Uiso   ? 		N 		-0.535830
N 1.0  		0.6198972905546644 		0.06910889158596595  0.42314285714285715 		Uiso   ? 		N 		-0.535830
N 1.0  		0.6198972905546644 		0.06910889158596595  0.9231428571428572 		Uiso   ? 		N 		-0.535830
N 1.0  		0.21982307707207246 		0.2692406680417632  0.42314285714285715 		Uiso   ? 		N 		-0.530640
N 1.0  		0.21982307707207246 		0.2692406680417632  0.9231428571428572 		Uiso   ? 		N 		-0.530640
N 1.0  		0.7198685090680617 		0.2692406680417632  0.42314285714285715 		Uiso   ? 		N 		-0.530640
N 1.0  		0.7198685090680617 		0.2692406680417632  0.9231428571428572 		Uiso   ? 		N 		-0.530640
N 1.0  		0.3197942955854698 		0.46918310506855787  0.42314285714285715 		Uiso   ? 		N 		-0.529700
N 1.0  		0.3197942955854698 		0.46918310506855787  0.9231428571428572 		Uiso   ? 		N 		-0.529700
N 1.0  		0.8198397275814591 		0.46918310506855787  0.42314285714285715 		Uiso   ? 		N 		-0.529700
N 1.0  		0.8198397275814591 		0.46918310506855787  0.9231428571428572 		Uiso   ? 		N 		-0.529700
N 1.0  		0.4197655140988671 		0.6691255420953525  0.42314285714285715 		Uiso   ? 		N 		-0.530830
N 1.0  		0.4197655140988671 		0.6691255420953525  0.9231428571428572 		Uiso   ? 		N 		-0.530830
N 1.0  		0.9198109460948563 		0.6691255420953525  0.42314285714285715 		Uiso   ? 		N 		-0.530830
N 1.0  		0.9198109460948563 		0.6691255420953525  0.9231428571428572 		Uiso   ? 		N 		-0.530830
N 1.0  		0.01988064004527782 		0.8690679791221471  0.42314285714285715 		Uiso   ? 		N 		-0.536727
N 1.0  		0.01988064004527782 		0.8690679791221471  0.9231428571428572 		Uiso   ? 		N 		-0.536727
N 1.0  		0.5199260720412671 		0.8690679791221471  0.42314285714285715 		Uiso   ? 		N 		-0.536727
N 1.0  		0.5199260720412671 		0.8690679791221471  0.9231428571428572 		Uiso   ? 		N 		-0.536727
N 1.0  		0.07573577160105857 		0.08652811905420942  0.42314285714285715 		Uiso   ? 		N 		-0.422021
N 1.0  		0.07573577160105857 		0.08652811905420942  0.9231428571428572 		Uiso   ? 		N 		-0.422021
N 1.0  		0.5757812035970478 		0.08652811905420942  0.42314285714285715 		Uiso   ? 		N 		-0.422021
N 1.0  		0.5757812035970478 		0.08652811905420942  0.9231428571428572 		Uiso   ? 		N 		-0.422021
N 1.0  		0.17570699011445587 		0.286470556081004  0.42314285714285715 		Uiso   ? 		N 		-0.423420
N 1.0  		0.17570699011445587 		0.286470556081004  0.9231428571428572 		Uiso   ? 		N 		-0.423420
N 1.0  		0.6757524221104451 		0.286470556081004  0.42314285714285715 		Uiso   ? 		N 		-0.423420
N 1.0  		0.6757524221104451 		0.286470556081004  0.9231428571428572 		Uiso   ? 		N 		-0.423420
N 1.0  		0.27567820862785314 		0.4866023325368013  0.42314285714285715 		Uiso   ? 		N 		-0.420767
N 1.0  		0.27567820862785314 		0.4866023325368013  0.9231428571428572 		Uiso   ? 		N 		-0.420767
N 1.0  		0.7757236406238425 		0.4866023325368013  0.42314285714285715 		Uiso   ? 		N 		-0.420767
N 1.0  		0.7757236406238425 		0.4866023325368013  0.9231428571428572 		Uiso   ? 		N 		-0.420767
N 1.0  		0.37564942714125044 		0.6865447695635959  0.42314285714285715 		Uiso   ? 		N 		-0.421976
N 1.0  		0.37564942714125044 		0.6865447695635959  0.9231428571428572 		Uiso   ? 		N 		-0.421976
N 1.0  		0.8756948591372397 		0.6865447695635959  0.42314285714285715 		Uiso   ? 		N 		-0.421976
N 1.0  		0.8756948591372397 		0.6865447695635959  0.9231428571428572 		Uiso   ? 		N 		-0.421976
N 1.0  		0.47562064565464773 		0.8864872065903906  0.42314285714285715 		Uiso   ? 		N 		-0.417564
N 1.0  		0.47562064565464773 		0.8864872065903906  0.9231428571428572 		Uiso   ? 		N 		-0.417564
N 1.0  		0.975666077650637 		0.8864872065903906  0.42314285714285715 		Uiso   ? 		N 		-0.417564
N 1.0  		0.975666077650637 		0.8864872065903906  0.9231428571428572 		Uiso   ? 		N 		-0.417564
N 1.0  		0.03521713379449223 		0.11133158425355609  0.42314285714285715 		Uiso   ? 		N 		-0.536229
N 1.0  		0.03521713379449223 		0.11133158425355609  0.9231428571428572 		Uiso   ? 		N 		-0.536229
N 1.0  		0.5352625657904815 		0.11133158425355609  0.42314285714285715 		Uiso   ? 		N 		-0.536229
N 1.0  		0.5352625657904815 		0.11133158425355609  0.9231428571428572 		Uiso   ? 		N 		-0.536229
N 1.0  		0.13537769173689215 		0.3112740212803507  0.42314285714285715 		Uiso   ? 		N 		-0.535390
N 1.0  		0.13537769173689215 		0.3112740212803507  0.9231428571428572 		Uiso   ? 		N 		-0.535390
N 1.0  		0.6354231237328813 		0.3112740212803507  0.42314285714285715 		Uiso   ? 		N 		-0.535390
N 1.0  		0.6354231237328813 		0.3112740212803507  0.9231428571428572 		Uiso   ? 		N 		-0.535390
N 1.0  		0.2353489102502895 		0.511405797736148  0.42314285714285715 		Uiso   ? 		N 		-0.533376
N 1.0  		0.2353489102502895 		0.511405797736148  0.9231428571428572 		Uiso   ? 		N 		-0.533376
N 1.0  		0.7353943422462786 		0.511405797736148  0.42314285714285715 		Uiso   ? 		N 		-0.533376
N 1.0  		0.7353943422462786 		0.511405797736148  0.9231428571428572 		Uiso   ? 		N 		-0.533376
N 1.0  		0.3353201287636867 		0.7113482347629426  0.42314285714285715 		Uiso   ? 		N 		-0.531968
N 1.0  		0.3353201287636867 		0.7113482347629426  0.9231428571428572 		Uiso   ? 		N 		-0.531968
N 1.0  		0.835365560759676 		0.7113482347629426  0.42314285714285715 		Uiso   ? 		N 		-0.531968
N 1.0  		0.835365560759676 		0.7113482347629426  0.9231428571428572 		Uiso   ? 		N 		-0.531968
N 1.0  		0.4352913472770841 		0.9112906717897372  0.42314285714285715 		Uiso   ? 		N 		-0.534162
N 1.0  		0.4352913472770841 		0.9112906717897372  0.9231428571428572 		Uiso   ? 		N 		-0.534162
N 1.0  		0.9353367792730732 		0.9112906717897372  0.42314285714285715 		Uiso   ? 		N 		-0.534162
N 1.0  		0.9353367792730732 		0.9112906717897372  0.9231428571428572 		Uiso   ? 		N 		-0.534162
N 1.0  		0.09107226535027292 		0.00037867885800529287  0.42314285714285715 		Uiso   ? 		N 		-0.457954
N 1.0  		0.09107226535027292 		0.00037867885800529287  0.9231428571428572 		Uiso   ? 		N 		-0.457954
N 1.0  		0.5911176973462621 		0.00037867885800529287  0.42314285714285715 		Uiso   ? 		N 		-0.457954
N 1.0  		0.5911176973462621 		0.00037867885800529287  0.9231428571428572 		Uiso   ? 		N 		-0.457954
N 1.0  		0.19104348386367023 		0.20051045531380254  0.42314285714285715 		Uiso   ? 		N 		-0.460495
N 1.0  		0.19104348386367023 		0.20051045531380254  0.9231428571428572 		Uiso   ? 		N 		-0.460495
N 1.0  		0.6910889158596594 		0.20051045531380254  0.42314285714285715 		Uiso   ? 		N 		-0.460495
N 1.0  		0.6910889158596594 		0.20051045531380254  0.9231428571428572 		Uiso   ? 		N 		-0.460495
N 1.0  		0.29101470237706756 		0.4004528923405972  0.42314285714285715 		Uiso   ? 		N 		-0.453388
N 1.0  		0.29101470237706756 		0.4004528923405972  0.9231428571428572 		Uiso   ? 		N 		-0.453388
N 1.0  		0.7910601343730568 		0.4004528923405972  0.42314285714285715 		Uiso   ? 		N 		-0.453388
N 1.0  		0.7910601343730568 		0.4004528923405972  0.9231428571428572 		Uiso   ? 		N 		-0.453388
N 1.0  		0.3911752603194674 		0.6003953293673918  0.42314285714285715 		Uiso   ? 		N 		-0.460382
N 1.0  		0.3911752603194674 		0.6003953293673918  0.9231428571428572 		Uiso   ? 		N 		-0.460382
N 1.0  		0.8912206923154566 		0.6003953293673918  0.42314285714285715 		Uiso   ? 		N 		-0.460382
N 1.0  		0.8912206923154566 		0.6003953293673918  0.9231428571428572 		Uiso   ? 		N 		-0.460382
N 1.0  		0.4911464788328647 		0.8003377663941865  0.42314285714285715 		Uiso   ? 		N 		-0.458520
N 1.0  		0.4911464788328647 		0.8003377663941865  0.9231428571428572 		Uiso   ? 		N 		-0.458520
N 1.0  		0.991191910828854 		0.8003377663941865  0.42314285714285715 		Uiso   ? 		N 		-0.458520
N 1.0  		0.991191910828854 		0.8003377663941865  0.9231428571428572 		Uiso   ? 		N 		-0.458520
N 1.0  		0.20164649188781844 		0.11587573054961961  0.42314285714285715 		Uiso   ? 		N 		-0.427413
N 1.0  		0.20164649188781844 		0.11587573054961961  0.9231428571428572 		Uiso   ? 		N 		-0.427413
N 1.0  		0.7016919238838076 		0.11587573054961961  0.42314285714285715 		Uiso   ? 		N 		-0.427413
N 1.0  		0.7016919238838076 		0.11587573054961961  0.9231428571428572 		Uiso   ? 		N 		-0.427413
N 1.0  		0.30161771040121577 		0.31581816757641423  0.42314285714285715 		Uiso   ? 		N 		-0.424753
N 1.0  		0.30161771040121577 		0.31581816757641423  0.9231428571428572 		Uiso   ? 		N 		-0.424753
N 1.0  		0.8016631423972049 		0.31581816757641423  0.42314285714285715 		Uiso   ? 		N 		-0.424753
N 1.0  		0.8016631423972049 		0.31581816757641423  0.9231428571428572 		Uiso   ? 		N 		-0.424753
N 1.0  		0.40177826834361563 		0.5159499440322115  0.42314285714285715 		Uiso   ? 		N 		-0.429663
N 1.0  		0.40177826834361563 		0.5159499440322115  0.9231428571428572 		Uiso   ? 		N 		-0.429663
N 1.0  		0.9018237003396049 		0.5159499440322115  0.42314285714285715 		Uiso   ? 		N 		-0.429663
N 1.0  		0.9018237003396049 		0.5159499440322115  0.9231428571428572 		Uiso   ? 		N 		-0.429663
N 1.0  		0.001704054861023774 		0.7158923810590061  0.42314285714285715 		Uiso   ? 		N 		-0.428978
N 1.0  		0.001704054861023774 		0.7158923810590061  0.9231428571428572 		Uiso   ? 		N 		-0.428978
N 1.0  		0.501749486857013 		0.7158923810590061  0.42314285714285715 		Uiso   ? 		N 		-0.428978
N 1.0  		0.501749486857013 		0.7158923810590061  0.9231428571428572 		Uiso   ? 		N 		-0.428978
N 1.0  		0.10167527337442107 		0.9158348180858007  0.42314285714285715 		Uiso   ? 		N 		-0.430581
N 1.0  		0.10167527337442107 		0.9158348180858007  0.9231428571428572 		Uiso   ? 		N 		-0.430581
N 1.0  		0.6017207053704102 		0.9158348180858007  0.42314285714285715 		Uiso   ? 		N 		-0.430581
N 1.0  		0.6017207053704102 		0.9158348180858007  0.9231428571428572 		Uiso   ? 		N 		-0.430581
N 1.0  		0.20107847360081052 		0.15809842321720977  0.42314285714285715 		Uiso   ? 		N 		-0.348487
N 1.0  		0.20107847360081052 		0.15809842321720977  0.9231428571428572 		Uiso   ? 		N 		-0.348487
N 1.0  		0.7011239055967997 		0.15809842321720977  0.42314285714285715 		Uiso   ? 		N 		-0.348487
N 1.0  		0.7011239055967997 		0.15809842321720977  0.9231428571428572 		Uiso   ? 		N 		-0.348487
N 1.0  		0.30104969211420785 		0.358230199673007  0.42314285714285715 		Uiso   ? 		N 		-0.348746
N 1.0  		0.30104969211420785 		0.358230199673007  0.9231428571428572 		Uiso   ? 		N 		-0.348746
N 1.0  		0.801095124110197 		0.358230199673007  0.42314285714285715 		Uiso   ? 		N 		-0.348746
N 1.0  		0.801095124110197 		0.358230199673007  0.9231428571428572 		Uiso   ? 		N 		-0.348746
N 1.0  		0.40102091062760503 		0.5581726366998017  0.42314285714285715 		Uiso   ? 		N 		-0.352367
N 1.0  		0.40102091062760503 		0.5581726366998017  0.9231428571428572 		Uiso   ? 		N 		-0.352367
N 1.0  		0.9010663426235944 		0.5581726366998017  0.42314285714285715 		Uiso   ? 		N 		-0.352367
N 1.0  		0.9010663426235944 		0.5581726366998017  0.9231428571428572 		Uiso   ? 		N 		-0.352367
N 1.0  		0.0011360365740158323 		0.7581150737265961  0.42314285714285715 		Uiso   ? 		N 		-0.349913
N 1.0  		0.0011360365740158323 		0.7581150737265961  0.9231428571428572 		Uiso   ? 		N 		-0.349913
N 1.0  		0.501181468570005 		0.7581150737265961  0.42314285714285715 		Uiso   ? 		N 		-0.349913
N 1.0  		0.501181468570005 		0.7581150737265961  0.9231428571428572 		Uiso   ? 		N 		-0.349913
N 1.0  		0.10110725508741314 		0.9580575107533909  0.42314285714285715 		Uiso   ? 		N 		-0.346757
N 1.0  		0.10110725508741314 		0.9580575107533909  0.9231428571428572 		Uiso   ? 		N 		-0.346757
N 1.0  		0.6011526870834022 		0.9580575107533909  0.42314285714285715 		Uiso   ? 		N 		-0.346757
N 1.0  		0.6011526870834022 		0.9580575107533909  0.9231428571428572 		Uiso   ? 		N 		-0.346757
N 1.0  		0.2853345195069881 		0.11133158425355609  0.023142857142857142 		Uiso   ? 		N 		-0.532983
N 1.0  		0.2853345195069881 		0.11133158425355609  0.5231428571428571 		Uiso   ? 		N 		-0.532983
N 1.0  		0.7853799515029773 		0.11133158425355609  0.023142857142857142 		Uiso   ? 		N 		-0.532983
N 1.0  		0.7853799515029773 		0.11133158425355609  0.5231428571428571 		Uiso   ? 		N 		-0.532983
N 1.0  		0.3853057380203855 		0.3114633607093534  0.023142857142857142 		Uiso   ? 		N 		-0.532899
N 1.0  		0.3853057380203855 		0.3114633607093534  0.5231428571428571 		Uiso   ? 		N 		-0.532899
N 1.0  		0.8853511700163748 		0.3114633607093534  0.023142857142857142 		Uiso   ? 		N 		-0.532899
N 1.0  		0.8853511700163748 		0.3114633607093534  0.5231428571428571 		Uiso   ? 		N 		-0.532899
N 1.0  		0.4852769565337828 		0.511405797736148  0.023142857142857142 		Uiso   ? 		N 		-0.534485
N 1.0  		0.4852769565337828 		0.511405797736148  0.5231428571428571 		Uiso   ? 		N 		-0.534485
N 1.0  		0.9853223885297719 		0.511405797736148  0.023142857142857142 		Uiso   ? 		N 		-0.534485
N 1.0  		0.9853223885297719 		0.511405797736148  0.5231428571428571 		Uiso   ? 		N 		-0.534485
N 1.0  		0.08539208248019349 		0.7113482347629426  0.023142857142857142 		Uiso   ? 		N 		-0.532657
N 1.0  		0.08539208248019349 		0.7113482347629426  0.5231428571428571 		Uiso   ? 		N 		-0.532657
N 1.0  		0.5854375144761828 		0.7113482347629426  0.023142857142857142 		Uiso   ? 		N 		-0.532657
N 1.0  		0.5854375144761828 		0.7113482347629426  0.5231428571428571 		Uiso   ? 		N 		-0.532657
N 1.0  		0.1853633009935908 		0.9112906717897372  0.023142857142857142 		Uiso   ? 		N 		-0.535187
N 1.0  		0.1853633009935908 		0.9112906717897372  0.5231428571428571 		Uiso   ? 		N 		-0.535187
N 1.0  		0.6854087329895799 		0.9112906717897372  0.023142857142857142 		Uiso   ? 		N 		-0.535187
N 1.0  		0.6854087329895799 		0.9112906717897372  0.5231428571428571 		Uiso   ? 		N 		-0.535187
N 1.0  		0.45782273932839906 		0.029726290353415487  0.023142857142857142 		Uiso   ? 		N 		-0.350938
N 1.0  		0.45782273932839906 		0.029726290353415487  0.5231428571428571 		Uiso   ? 		N 		-0.350938
N 1.0  		0.9578681713243883 		0.029726290353415487  0.023142857142857142 		Uiso   ? 		N 		-0.350938
N 1.0  		0.9578681713243883 		0.029726290353415487  0.5231428571428571 		Uiso   ? 		N 		-0.350938
N 1.0  		0.05774852584580714 		0.22966872738021013  0.023142857142857142 		Uiso   ? 		N 		-0.351122
N 1.0  		0.05774852584580714 		0.22966872738021013  0.5231428571428571 		Uiso   ? 		N 		-0.351122
N 1.0  		0.5577939578417964 		0.22966872738021013  0.023142857142857142 		Uiso   ? 		N 		-0.351122
N 1.0  		0.5577939578417964 		0.22966872738021013  0.5231428571428571 		Uiso   ? 		N 		-0.351122
N 1.0  		0.15771974435920444 		0.42961116440700475  0.023142857142857142 		Uiso   ? 		N 		-0.350884
N 1.0  		0.15771974435920444 		0.42961116440700475  0.5231428571428571 		Uiso   ? 		N 		-0.350884
N 1.0  		0.6577651763551937 		0.42961116440700475  0.023142857142857142 		Uiso   ? 		N 		-0.350884
N 1.0  		0.6577651763551937 		0.42961116440700475  0.5231428571428571 		Uiso   ? 		N 		-0.350884
N 1.0  		0.25769096287260174 		0.629742940862802  0.023142857142857142 		Uiso   ? 		N 		-0.349516
N 1.0  		0.25769096287260174 		0.629742940862802  0.5231428571428571 		Uiso   ? 		N 		-0.349516
N 1.0  		0.7577363948685909 		0.629742940862802  0.023142857142857142 		Uiso   ? 		N 		-0.349516
N 1.0  		0.7577363948685909 		0.629742940862802  0.5231428571428571 		Uiso   ? 		N 		-0.349516
N 1.0  		0.35785152081500166 		0.8296853778895965  0.023142857142857142 		Uiso   ? 		N 		-0.349685
N 1.0  		0.35785152081500166 		0.8296853778895965  0.5231428571428571 		Uiso   ? 		N 		-0.349685
N 1.0  		0.8578969528109909 		0.8296853778895965  0.023142857142857142 		Uiso   ? 		N 		-0.349685
N 1.0  		0.8578969528109909 		0.8296853778895965  0.5231428571428571 		Uiso   ? 		N 		-0.349685
N 1.0  		0.4975840194189548 		0.04695617839265631  0.023142857142857142 		Uiso   ? 		N 		-0.456134
N 1.0  		0.4975840194189548 		0.04695617839265631  0.5231428571428571 		Uiso   ? 		N 		-0.456134
N 1.0  		0.997629451414944 		0.04695617839265631  0.023142857142857142 		Uiso   ? 		N 		-0.456134
N 1.0  		0.997629451414944 		0.04695617839265631  0.5231428571428571 		Uiso   ? 		N 		-0.456134
N 1.0  		0.0975098059363629 		0.24708795484845356  0.023142857142857142 		Uiso   ? 		N 		-0.458055
N 1.0  		0.0975098059363629 		0.24708795484845356  0.5231428571428571 		Uiso   ? 		N 		-0.458055
N 1.0  		0.5975552379323521 		0.24708795484845356  0.023142857142857142 		Uiso   ? 		N 		-0.458055
N 1.0  		0.5975552379323521 		0.24708795484845356  0.5231428571428571 		Uiso   ? 		N 		-0.458055
N 1.0  		0.19767036387876286 		0.44703039187524823  0.023142857142857142 		Uiso   ? 		N 		-0.456841
N 1.0  		0.19767036387876286 		0.44703039187524823  0.5231428571428571 		Uiso   ? 		N 		-0.456841
N 1.0  		0.6977157958747521 		0.44703039187524823  0.023142857142857142 		Uiso   ? 		N 		-0.456841
N 1.0  		0.6977157958747521 		0.44703039187524823  0.5231428571428571 		Uiso   ? 		N 		-0.456841
N 1.0  		0.29764158239216015 		0.6469728289020428  0.023142857142857142 		Uiso   ? 		N 		-0.456384
N 1.0  		0.29764158239216015 		0.6469728289020428  0.5231428571428571 		Uiso   ? 		N 		-0.456384
N 1.0  		0.7976870143881494 		0.6469728289020428  0.023142857142857142 		Uiso   ? 		N 		-0.456384
N 1.0  		0.7976870143881494 		0.6469728289020428  0.5231428571428571 		Uiso   ? 		N 		-0.456384
N 1.0  		0.39761280090555745 		0.8471046053578402  0.023142857142857142 		Uiso   ? 		N 		-0.455362
N 1.0  		0.39761280090555745 		0.8471046053578402  0.5231428571428571 		Uiso   ? 		N 		-0.455362
N 1.0  		0.8976582329015467 		0.8471046053578402  0.023142857142857142 		Uiso   ? 		N 		-0.455362
N 1.0  		0.8976582329015467 		0.8471046053578402  0.5231428571428571 		Uiso   ? 		N 		-0.455362
N 1.0  		0.32566381788455184 		0.08652811905420942  0.023142857142857142 		Uiso   ? 		N 		-0.416367
N 1.0  		0.32566381788455184 		0.08652811905420942  0.5231428571428571 		Uiso   ? 		N 		-0.416367
N 1.0  		0.825709249880541 		0.08652811905420942  0.023142857142857142 		Uiso   ? 		N 		-0.416367
N 1.0  		0.825709249880541 		0.08652811905420942  0.5231428571428571 		Uiso   ? 		N 		-0.416367
N 1.0  		0.4258243758269518 		0.286470556081004  0.023142857142857142 		Uiso   ? 		N 		-0.421503
N 1.0  		0.4258243758269518 		0.286470556081004  0.5231428571428571 		Uiso   ? 		N 		-0.421503
N 1.0  		0.9258698078229409 		0.286470556081004  0.023142857142857142 		Uiso   ? 		N 		-0.421503
N 1.0  		0.9258698078229409 		0.286470556081004  0.5231428571428571 		Uiso   ? 		N 		-0.421503
N 1.0  		0.025750162344359884 		0.4864129931077987  0.023142857142857142 		Uiso   ? 		N 		-0.418460
N 1.0  		0.025750162344359884 		0.4864129931077987  0.5231428571428571 		Uiso   ? 		N 		-0.418460
N 1.0  		0.5257955943403492 		0.4864129931077987  0.023142857142857142 		Uiso   ? 		N 		-0.418460
N 1.0  		0.5257955943403492 		0.4864129931077987  0.5231428571428571 		Uiso   ? 		N 		-0.418460
N 1.0  		0.12572138085775716 		0.6865447695635959  0.023142857142857142 		Uiso   ? 		N 		-0.416188
N 1.0  		0.12572138085775716 		0.6865447695635959  0.5231428571428571 		Uiso   ? 		N 		-0.416188
N 1.0  		0.6257668128537465 		0.6865447695635959  0.023142857142857142 		Uiso   ? 		N 		-0.416188
N 1.0  		0.6257668128537465 		0.6865447695635959  0.5231428571428571 		Uiso   ? 		N 		-0.416188
N 1.0  		0.22569259937115446 		0.8864872065903906  0.023142857142857142 		Uiso   ? 		N 		-0.416655
N 1.0  		0.22569259937115446 		0.8864872065903906  0.5231428571428571 		Uiso   ? 		N 		-0.416655
N 1.0  		0.7257380313671438 		0.8864872065903906  0.023142857142857142 		Uiso   ? 		N 		-0.416655
N 1.0  		0.7257380313671438 		0.8864872065903906  0.5231428571428571 		Uiso   ? 		N 		-0.416655
N 1.0  		0.17362425639542678 		0.004922825154068807  0.023142857142857142 		Uiso   ? 		N 		-0.428888
N 1.0  		0.17362425639542678 		0.004922825154068807  0.5231428571428571 		Uiso   ? 		N 		-0.428888
N 1.0  		0.6736696883914159 		0.004922825154068807  0.023142857142857142 		Uiso   ? 		N 		-0.428888
N 1.0  		0.6736696883914159 		0.004922825154068807  0.5231428571428571 		Uiso   ? 		N 		-0.428888
N 1.0  		0.2735954749088241 		0.20486526218086346  0.023142857142857142 		Uiso   ? 		N 		-0.425729
N 1.0  		0.2735954749088241 		0.20486526218086346  0.5231428571428571 		Uiso   ? 		N 		-0.425729
N 1.0  		0.7736409069048134 		0.20486526218086346  0.023142857142857142 		Uiso   ? 		N 		-0.425729
N 1.0  		0.7736409069048134 		0.20486526218086346  0.5231428571428571 		Uiso   ? 		N 		-0.425729
N 1.0  		0.37356669342222143 		0.404807699207658  0.023142857142857142 		Uiso   ? 		N 		-0.423528
N 1.0  		0.37356669342222143 		0.404807699207658  0.5231428571428571 		Uiso   ? 		N 		-0.423528
N 1.0  		0.8736121254182105 		0.404807699207658  0.023142857142857142 		Uiso   ? 		N 		-0.423528
N 1.0  		0.8736121254182105 		0.404807699207658  0.5231428571428571 		Uiso   ? 		N 		-0.423528
N 1.0  		0.4735379119356186 		0.6049394756634553  0.023142857142857142 		Uiso   ? 		N 		-0.427610
N 1.0  		0.4735379119356186 		0.6049394756634553  0.5231428571428571 		Uiso   ? 		N 		-0.427610
N 1.0  		0.973583343931608 		0.6049394756634553  0.023142857142857142 		Uiso   ? 		N 		-0.427610
N 1.0  		0.973583343931608 		0.6049394756634553  0.5231428571428571 		Uiso   ? 		N 		-0.427610
N 1.0  		0.0736530378820294 		0.80488191269025  0.023142857142857142 		Uiso   ? 		N 		-0.428418
N 1.0  		0.0736530378820294 		0.80488191269025  0.5231428571428571 		Uiso   ? 		N 		-0.428418
N 1.0  		0.5736984698780186 		0.80488191269025  0.023142857142857142 		Uiso   ? 		N 		-0.428418
N 1.0  		0.5736984698780186 		0.80488191269025  0.5231428571428571 		Uiso   ? 		N 		-0.428418
N 1.0  		0.4235523026789201 		0.004733485725066161  0.023142857142857142 		Uiso   ? 		N 		-0.424360
N 1.0  		0.4235523026789201 		0.004733485725066161  0.5231428571428571 		Uiso   ? 		N 		-0.424360
N 1.0  		0.9235977346749092 		0.004733485725066161  0.023142857142857142 		Uiso   ? 		N 		-0.424360
N 1.0  		0.9235977346749092 		0.004733485725066161  0.5231428571428571 		Uiso   ? 		N 		-0.424360
N 1.0  		0.023478089196328142 		0.20486526218086346  0.023142857142857142 		Uiso   ? 		N 		-0.425745
N 1.0  		0.023478089196328142 		0.20486526218086346  0.5231428571428571 		Uiso   ? 		N 		-0.425745
N 1.0  		0.5235235211923174 		0.20486526218086346  0.023142857142857142 		Uiso   ? 		N 		-0.425745
N 1.0  		0.5235235211923174 		0.20486526218086346  0.5231428571428571 		Uiso   ? 		N 		-0.425745
N 1.0  		0.12363864713872809 		0.404807699207658  0.023142857142857142 		Uiso   ? 		N 		-0.430620
N 1.0  		0.12363864713872809 		0.404807699207658  0.5231428571428571 		Uiso   ? 		N 		-0.430620
N 1.0  		0.6236840791347174 		0.404807699207658  0.023142857142857142 		Uiso   ? 		N 		-0.430620
N 1.0  		0.6236840791347174 		0.404807699207658  0.5231428571428571 		Uiso   ? 		N 		-0.430620
N 1.0  		0.2236098656521254 		0.6047501362344526  0.023142857142857142 		Uiso   ? 		N 		-0.425703
N 1.0  		0.2236098656521254 		0.6047501362344526  0.5231428571428571 		Uiso   ? 		N 		-0.425703
N 1.0  		0.7236552976481146 		0.6047501362344526  0.023142857142857142 		Uiso   ? 		N 		-0.425703
N 1.0  		0.7236552976481146 		0.6047501362344526  0.5231428571428571 		Uiso   ? 		N 		-0.425703
N 1.0  		0.32358108416552267 		0.80488191269025  0.023142857142857142 		Uiso   ? 		N 		-0.430913
N 1.0  		0.32358108416552267 		0.80488191269025  0.5231428571428571 		Uiso   ? 		N 		-0.430913
N 1.0  		0.8236265161615118 		0.80488191269025  0.023142857142857142 		Uiso   ? 		N 		-0.430913
N 1.0  		0.8236265161615118 		0.80488191269025  0.5231428571428571 		Uiso   ? 		N 		-0.430913
N 1.0  		0.48754902968181457 		0.18119783355553262  0.023142857142857142 		Uiso   ? 		N 		-0.369811
N 1.0  		0.48754902968181457 		0.18119783355553262  0.5231428571428571 		Uiso   ? 		N 		-0.369811
N 1.0  		0.9875944616778037 		0.18119783355553262  0.023142857142857142 		Uiso   ? 		N 		-0.369811
N 1.0  		0.9875944616778037 		0.18119783355553262  0.5231428571428571 		Uiso   ? 		N 		-0.369811
N 1.0  		0.08747481619922262 		0.38132961001132987  0.023142857142857142 		Uiso   ? 		N 		-0.377460
N 1.0  		0.08747481619922262 		0.38132961001132987  0.5231428571428571 		Uiso   ? 		N 		-0.377460
N 1.0  		0.5875202481952119 		0.38132961001132987  0.023142857142857142 		Uiso   ? 		N 		-0.377460
N 1.0  		0.5875202481952119 		0.38132961001132987  0.5231428571428571 		Uiso   ? 		N 		-0.377460
N 1.0  		0.18744603471261992 		0.5812720470381245  0.023142857142857142 		Uiso   ? 		N 		-0.371470
N 1.0  		0.18744603471261992 		0.5812720470381245  0.5231428571428571 		Uiso   ? 		N 		-0.371470
N 1.0  		0.6874914667086092 		0.5812720470381245  0.023142857142857142 		Uiso   ? 		N 		-0.371470
N 1.0  		0.6874914667086092 		0.5812720470381245  0.5231428571428571 		Uiso   ? 		N 		-0.371470
N 1.0  		0.28760659265501987 		0.7814038234939218  0.023142857142857142 		Uiso   ? 		N 		-0.372617
N 1.0  		0.28760659265501987 		0.7814038234939218  0.5231428571428571 		Uiso   ? 		N 		-0.372617
N 1.0  		0.7876520246510091 		0.7814038234939218  0.023142857142857142 		Uiso   ? 		N 		-0.372617
N 1.0  		0.7876520246510091 		0.7814038234939218  0.5231428571428571 		Uiso   ? 		N 		-0.372617
N 1.0  		0.3875778111684172 		0.9813462605207164  0.023142857142857142 		Uiso   ? 		N 		-0.372525
N 1.0  		0.3875778111684172 		0.9813462605207164  0.5231428571428571 		Uiso   ? 		N 		-0.372525
N 1.0  		0.8876232431644062 		0.9813462605207164  0.023142857142857142 		Uiso   ? 		N 		-0.372525
N 1.0  		0.8876232431644062 		0.9813462605207164  0.5231428571428571 		Uiso   ? 		N 		-0.372525
N 1.0  		0.4510065198843038 		0.15809842321720977  0.023142857142857142 		Uiso   ? 		N 		-0.350707
N 1.0  		0.4510065198843038 		0.15809842321720977  0.5231428571428571 		Uiso   ? 		N 		-0.350707
N 1.0  		0.9510519518802929 		0.15809842321720977  0.023142857142857142 		Uiso   ? 		N 		-0.350707
N 1.0  		0.9510519518802929 		0.15809842321720977  0.5231428571428571 		Uiso   ? 		N 		-0.350707
N 1.0  		0.05093230640171187 		0.3580408602440044  0.023142857142857142 		Uiso   ? 		N 		-0.354888
N 1.0  		0.05093230640171187 		0.3580408602440044  0.5231428571428571 		Uiso   ? 		N 		-0.354888
N 1.0  		0.5509777383977011 		0.3580408602440044  0.023142857142857142 		Uiso   ? 		N 		-0.354888
N 1.0  		0.5509777383977011 		0.3580408602440044  0.5231428571428571 		Uiso   ? 		N 		-0.354888
N 1.0  		0.15109286434411182 		0.557983297270799  0.023142857142857142 		Uiso   ? 		N 		-0.352125
N 1.0  		0.15109286434411182 		0.557983297270799  0.5231428571428571 		Uiso   ? 		N 		-0.352125
N 1.0  		0.651138296340101 		0.557983297270799  0.023142857142857142 		Uiso   ? 		N 		-0.352125
N 1.0  		0.651138296340101 		0.557983297270799  0.5231428571428571 		Uiso   ? 		N 		-0.352125
N 1.0  		0.2510640828575091 		0.7581150737265961  0.023142857142857142 		Uiso   ? 		N 		-0.348008
N 1.0  		0.2510640828575091 		0.7581150737265961  0.5231428571428571 		Uiso   ? 		N 		-0.348008
N 1.0  		0.7511095148534984 		0.7581150737265961  0.023142857142857142 		Uiso   ? 		N 		-0.348008
N 1.0  		0.7511095148534984 		0.7581150737265961  0.5231428571428571 		Uiso   ? 		N 		-0.348008
N 1.0  		0.35103530137090644 		0.9580575107533909  0.023142857142857142 		Uiso   ? 		N 		-0.349187
N 1.0  		0.35103530137090644 		0.9580575107533909  0.5231428571428571 		Uiso   ? 		N 		-0.349187
N 1.0  		0.8510807333668956 		0.9580575107533909  0.023142857142857142 		Uiso   ? 		N 		-0.349187
N 1.0  		0.8510807333668956 		0.9580575107533909  0.5231428571428571 		Uiso   ? 		N 		-0.349187
N 1.0  		0.2078946930449058 		0.029726290353415487  0.023142857142857142 		Uiso   ? 		N 		-0.352915
N 1.0  		0.2078946930449058 		0.029726290353415487  0.5231428571428571 		Uiso   ? 		N 		-0.352915
N 1.0  		0.707940125040895 		0.029726290353415487  0.023142857142857142 		Uiso   ? 		N 		-0.352915
N 1.0  		0.707940125040895 		0.029726290353415487  0.5231428571428571 		Uiso   ? 		N 		-0.352915
N 1.0  		0.30786591155830306 		0.22966872738021013  0.023142857142857142 		Uiso   ? 		N 		-0.354768
N 1.0  		0.30786591155830306 		0.22966872738021013  0.5231428571428571 		Uiso   ? 		N 		-0.354768
N 1.0  		0.8079113435542924 		0.22966872738021013  0.023142857142857142 		Uiso   ? 		N 		-0.354768
N 1.0  		0.8079113435542924 		0.22966872738021013  0.5231428571428571 		Uiso   ? 		N 		-0.354768
N 1.0  		0.40783713007170036 		0.4298005038360074  0.023142857142857142 		Uiso   ? 		N 		-0.348697
N 1.0  		0.40783713007170036 		0.4298005038360074  0.5231428571428571 		Uiso   ? 		N 		-0.348697
N 1.0  		0.9078825620676896 		0.4298005038360074  0.023142857142857142 		Uiso   ? 		N 		-0.348697
N 1.0  		0.9078825620676896 		0.4298005038360074  0.5231428571428571 		Uiso   ? 		N 		-0.348697
N 1.0  		0.007762916589108465 		0.629742940862802  0.023142857142857142 		Uiso   ? 		N 		-0.353408
N 1.0  		0.007762916589108465 		0.629742940862802  0.5231428571428571 		Uiso   ? 		N 		-0.353408
N 1.0  		0.5078083485850977 		0.629742940862802  0.023142857142857142 		Uiso   ? 		N 		-0.353408
N 1.0  		0.5078083485850977 		0.629742940862802  0.5231428571428571 		Uiso   ? 		N 		-0.353408
N 1.0  		0.1079234745315084 		0.8296853778895965  0.023142857142857142 		Uiso   ? 		N 		-0.352062
N 1.0  		0.1079234745315084 		0.8296853778895965  0.5231428571428571 		Uiso   ? 		N 		-0.352062
N 1.0  		0.6079689065274977 		0.8296853778895965  0.023142857142857142 		Uiso   ? 		N 		-0.352062
N 1.0  		0.6079689065274977 		0.8296853778895965  0.5231428571428571 		Uiso   ? 		N 		-0.352062
N 1.0  		0.0367318492265134 		0.0664581395799289  0.023142857142857142 		Uiso   ? 		N 		-0.417882
N 1.0  		0.0367318492265134 		0.0664581395799289  0.5231428571428571 		Uiso   ? 		N 		-0.417882
N 1.0  		0.5367772812225026 		0.0664581395799289  0.023142857142857142 		Uiso   ? 		N 		-0.417882
N 1.0  		0.5367772812225026 		0.0664581395799289  0.5231428571428571 		Uiso   ? 		N 		-0.417882
N 1.0  		0.13670306773991067 		0.2665899160357261  0.023142857142857142 		Uiso   ? 		N 		-0.419595
N 1.0  		0.13670306773991067 		0.2665899160357261  0.5231428571428571 		Uiso   ? 		N 		-0.419595
N 1.0  		0.6367484997358999 		0.2665899160357261  0.023142857142857142 		Uiso   ? 		N 		-0.419595
N 1.0  		0.6367484997358999 		0.2665899160357261  0.5231428571428571 		Uiso   ? 		N 		-0.419595
N 1.0  		0.236674286253308 		0.4665323530625208  0.023142857142857142 		Uiso   ? 		N 		-0.421240
N 1.0  		0.236674286253308 		0.4665323530625208  0.5231428571428571 		Uiso   ? 		N 		-0.421240
N 1.0  		0.7367197182492973 		0.4665323530625208  0.023142857142857142 		Uiso   ? 		N 		-0.421240
N 1.0  		0.7367197182492973 		0.4665323530625208  0.5231428571428571 		Uiso   ? 		N 		-0.421240
N 1.0  		0.3366455047667053 		0.6664747900893154  0.023142857142857142 		Uiso   ? 		N 		-0.421435
N 1.0  		0.3366455047667053 		0.6664747900893154  0.5231428571428571 		Uiso   ? 		N 		-0.421435
N 1.0  		0.8366909367626945 		0.6664747900893154  0.023142857142857142 		Uiso   ? 		N 		-0.421435
N 1.0  		0.8366909367626945 		0.6664747900893154  0.5231428571428571 		Uiso   ? 		N 		-0.421435
N 1.0  		0.4366167232801026 		0.8664172271161099  0.023142857142857142 		Uiso   ? 		N 		-0.421046
N 1.0  		0.4366167232801026 		0.8664172271161099  0.5231428571428571 		Uiso   ? 		N 		-0.421046
N 1.0  		0.9366621552760919 		0.8664172271161099  0.023142857142857142 		Uiso   ? 		N 		-0.421046
N 1.0  		0.9366621552760919 		0.8664172271161099  0.5231428571428571 		Uiso   ? 		N 		-0.421046
N 1.0  		0.41370665237078247 		0.049606930398693364  0.023142857142857142 		Uiso   ? 		N 		-0.489184
N 1.0  		0.41370665237078247 		0.049606930398693364  0.5231428571428571 		Uiso   ? 		N 		-0.489184
N 1.0  		0.9137520843667716 		0.049606930398693364  0.023142857142857142 		Uiso   ? 		N 		-0.489184
N 1.0  		0.9137520843667716 		0.049606930398693364  0.5231428571428571 		Uiso   ? 		N 		-0.489184
N 1.0  		0.013821778317193173 		0.24973870685449062  0.023142857142857142 		Uiso   ? 		N 		-0.482338
N 1.0  		0.013821778317193173 		0.24973870685449062  0.5231428571428571 		Uiso   ? 		N 		-0.482338
N 1.0  		0.5138672103131824 		0.24973870685449062  0.023142857142857142 		Uiso   ? 		N 		-0.482338
N 1.0  		0.5138672103131824 		0.24973870685449062  0.5231428571428571 		Uiso   ? 		N 		-0.482338
N 1.0  		0.11379299683059046 		0.4496811438812853  0.023142857142857142 		Uiso   ? 		N 		-0.488135
N 1.0  		0.11379299683059046 		0.4496811438812853  0.5231428571428571 		Uiso   ? 		N 		-0.488135
N 1.0  		0.6138384288265797 		0.4496811438812853  0.023142857142857142 		Uiso   ? 		N 		-0.488135
N 1.0  		0.6138384288265797 		0.4496811438812853  0.5231428571428571 		Uiso   ? 		N 		-0.488135
N 1.0  		0.2137642153439878 		0.6496235809080799  0.023142857142857142 		Uiso   ? 		N 		-0.488053
N 1.0  		0.2137642153439878 		0.6496235809080799  0.5231428571428571 		Uiso   ? 		N 		-0.488053
N 1.0  		0.713809647339977 		0.6496235809080799  0.023142857142857142 		Uiso   ? 		N 		-0.488053
N 1.0  		0.713809647339977 		0.6496235809080799  0.5231428571428571 		Uiso   ? 		N 		-0.488053
N 1.0  		0.31373543385738506 		0.8495660179348745  0.023142857142857142 		Uiso   ? 		N 		-0.487686
N 1.0  		0.31373543385738506 		0.8495660179348745  0.5231428571428571 		Uiso   ? 		N 		-0.487686
N 1.0  		0.8137808658533743 		0.8495660179348745  0.023142857142857142 		Uiso   ? 		N 		-0.487686
N 1.0  		0.8137808658533743 		0.8495660179348745  0.5231428571428571 		Uiso   ? 		N 		-0.487686
N 1.0  		0.3697799048421685 		0.06910889158596595  0.023142857142857142 		Uiso   ? 		N 		-0.531742
N 1.0  		0.3697799048421685 		0.06910889158596595  0.5231428571428571 		Uiso   ? 		N 		-0.531742
N 1.0  		0.8698253368381578 		0.06910889158596595  0.023142857142857142 		Uiso   ? 		N 		-0.531742
N 1.0  		0.8698253368381578 		0.06910889158596595  0.5231428571428571 		Uiso   ? 		N 		-0.531742
N 1.0  		0.46975112335556574 		0.2690513286127606  0.023142857142857142 		Uiso   ? 		N 		-0.532533
N 1.0  		0.46975112335556574 		0.2690513286127606  0.5231428571428571 		Uiso   ? 		N 		-0.532533
N 1.0  		0.969796555351555 		0.2690513286127606  0.023142857142857142 		Uiso   ? 		N 		-0.532533
N 1.0  		0.969796555351555 		0.2690513286127606  0.5231428571428571 		Uiso   ? 		N 		-0.532533
N 1.0  		0.0698662493019765 		0.46899376563955514  0.023142857142857142 		Uiso   ? 		N 		-0.535321
N 1.0  		0.0698662493019765 		0.46899376563955514  0.5231428571428571 		Uiso   ? 		N 		-0.535321
N 1.0  		0.5699116812979657 		0.46899376563955514  0.023142857142857142 		Uiso   ? 		N 		-0.535321
N 1.0  		0.5699116812979657 		0.46899376563955514  0.5231428571428571 		Uiso   ? 		N 		-0.535321
N 1.0  		0.16983746781537382 		0.6691255420953525  0.023142857142857142 		Uiso   ? 		N 		-0.536320
N 1.0  		0.16983746781537382 		0.6691255420953525  0.5231428571428571 		Uiso   ? 		N 		-0.536320
N 1.0  		0.669882899811363 		0.6691255420953525  0.023142857142857142 		Uiso   ? 		N 		-0.536320
N 1.0  		0.669882899811363 		0.6691255420953525  0.5231428571428571 		Uiso   ? 		N 		-0.536320
N 1.0  		0.2698086863287711 		0.8690679791221471  0.023142857142857142 		Uiso   ? 		N 		-0.534735
N 1.0  		0.2698086863287711 		0.8690679791221471  0.5231428571428571 		Uiso   ? 		N 		-0.534735
N 1.0  		0.7698541183247604 		0.8690679791221471  0.023142857142857142 		Uiso   ? 		N 		-0.534735
N 1.0  		0.7698541183247604 		0.8690679791221471  0.5231428571428571 		Uiso   ? 		N 		-0.534735
N 1.0  		0.2866598955100067 		0.0664581395799289  0.023142857142857142 		Uiso   ? 		N 		-0.420929
N 1.0  		0.2866598955100067 		0.0664581395799289  0.5231428571428571 		Uiso   ? 		N 		-0.420929
N 1.0  		0.786705327505996 		0.0664581395799289  0.023142857142857142 		Uiso   ? 		N 		-0.420929
N 1.0  		0.786705327505996 		0.0664581395799289  0.5231428571428571 		Uiso   ? 		N 		-0.420929
N 1.0  		0.3868204534524067 		0.2665899160357261  0.023142857142857142 		Uiso   ? 		N 		-0.419451
N 1.0  		0.3868204534524067 		0.2665899160357261  0.5231428571428571 		Uiso   ? 		N 		-0.419451
N 1.0  		0.8868658854483958 		0.2665899160357261  0.023142857142857142 		Uiso   ? 		N 		-0.419451
N 1.0  		0.8868658854483958 		0.2665899160357261  0.5231428571428571 		Uiso   ? 		N 		-0.419451
N 1.0  		0.4867916719658039 		0.4665323530625208  0.023142857142857142 		Uiso   ? 		N 		-0.418588
N 1.0  		0.4867916719658039 		0.4665323530625208  0.5231428571428571 		Uiso   ? 		N 		-0.418588
N 1.0  		0.9868371039617931 		0.4665323530625208  0.023142857142857142 		Uiso   ? 		N 		-0.418588
N 1.0  		0.9868371039617931 		0.4665323530625208  0.5231428571428571 		Uiso   ? 		N 		-0.418588
N 1.0  		0.08671745848321202 		0.6664747900893154  0.023142857142857142 		Uiso   ? 		N 		-0.422841
N 1.0  		0.08671745848321202 		0.6664747900893154  0.5231428571428571 		Uiso   ? 		N 		-0.422841
N 1.0  		0.5867628904792013 		0.6664747900893154  0.023142857142857142 		Uiso   ? 		N 		-0.422841
N 1.0  		0.5867628904792013 		0.6664747900893154  0.5231428571428571 		Uiso   ? 		N 		-0.422841
N 1.0  		0.18668867699660932 		0.8666065665451127  0.023142857142857142 		Uiso   ? 		N 		-0.424995
N 1.0  		0.18668867699660932 		0.8666065665451127  0.5231428571428571 		Uiso   ? 		N 		-0.424995
N 1.0  		0.6867341089925986 		0.8666065665451127  0.023142857142857142 		Uiso   ? 		N 		-0.424995
N 1.0  		0.6867341089925986 		0.8666065665451127  0.5231428571428571 		Uiso   ? 		N 		-0.424995
N 1.0  		0.23762098339832124 		0.18138717298453527  0.023142857142857142 		Uiso   ? 		N 		-0.372226
N 1.0  		0.23762098339832124 		0.18138717298453527  0.5231428571428571 		Uiso   ? 		N 		-0.372226
N 1.0  		0.7376664153943104 		0.18138717298453527  0.023142857142857142 		Uiso   ? 		N 		-0.372226
N 1.0  		0.7376664153943104 		0.18138717298453527  0.5231428571428571 		Uiso   ? 		N 		-0.372226
N 1.0  		0.33759220191171857 		0.38132961001132987  0.023142857142857142 		Uiso   ? 		N 		-0.372374
N 1.0  		0.33759220191171857 		0.38132961001132987  0.5231428571428571 		Uiso   ? 		N 		-0.372374
N 1.0  		0.8376376339077078 		0.38132961001132987  0.023142857142857142 		Uiso   ? 		N 		-0.372374
N 1.0  		0.8376376339077078 		0.38132961001132987  0.5231428571428571 		Uiso   ? 		N 		-0.372374
N 1.0  		0.4375634204251158 		0.5814613864671272  0.023142857142857142 		Uiso   ? 		N 		-0.375201
N 1.0  		0.4375634204251158 		0.5814613864671272  0.5231428571428571 		Uiso   ? 		N 		-0.375201
N 1.0  		0.937608852421105 		0.5814613864671272  0.023142857142857142 		Uiso   ? 		N 		-0.375201
N 1.0  		0.937608852421105 		0.5814613864671272  0.5231428571428571 		Uiso   ? 		N 		-0.375201
N 1.0  		0.037678546371526594 		0.7814038234939218  0.023142857142857142 		Uiso   ? 		N 		-0.373854
N 1.0  		0.037678546371526594 		0.7814038234939218  0.5231428571428571 		Uiso   ? 		N 		-0.373854
N 1.0  		0.5377239783675158 		0.7814038234939218  0.023142857142857142 		Uiso   ? 		N 		-0.373854
N 1.0  		0.5377239783675158 		0.7814038234939218  0.5231428571428571 		Uiso   ? 		N 		-0.373854
N 1.0  		0.1376497648849239 		0.9813462605207164  0.023142857142857142 		Uiso   ? 		N 		-0.371889
N 1.0  		0.1376497648849239 		0.9813462605207164  0.5231428571428571 		Uiso   ? 		N 		-0.371889
N 1.0  		0.637695196880913 		0.9813462605207164  0.023142857142857142 		Uiso   ? 		N 		-0.371889
N 1.0  		0.637695196880913 		0.9813462605207164  0.5231428571428571 		Uiso   ? 		N 		-0.371889
N 1.0  		0.16377860608728914 		0.049606930398693364  0.023142857142857142 		Uiso   ? 		N 		-0.484858
N 1.0  		0.16377860608728914 		0.049606930398693364  0.5231428571428571 		Uiso   ? 		N 		-0.484858
N 1.0  		0.6638240380832783 		0.049606930398693364  0.023142857142857142 		Uiso   ? 		N 		-0.484858
N 1.0  		0.6638240380832783 		0.049606930398693364  0.5231428571428571 		Uiso   ? 		N 		-0.484858
N 1.0  		0.2639391640296891 		0.24973870685449062  0.023142857142857142 		Uiso   ? 		N 		-0.484551
N 1.0  		0.2639391640296891 		0.24973870685449062  0.5231428571428571 		Uiso   ? 		N 		-0.484551
N 1.0  		0.7639845960256784 		0.24973870685449062  0.023142857142857142 		Uiso   ? 		N 		-0.484551
N 1.0  		0.7639845960256784 		0.24973870685449062  0.5231428571428571 		Uiso   ? 		N 		-0.484551
N 1.0  		0.3639103825430864 		0.4496811438812853  0.023142857142857142 		Uiso   ? 		N 		-0.486591
N 1.0  		0.3639103825430864 		0.4496811438812853  0.5231428571428571 		Uiso   ? 		N 		-0.486591
N 1.0  		0.8639558145390756 		0.4496811438812853  0.023142857142857142 		Uiso   ? 		N 		-0.486591
N 1.0  		0.8639558145390756 		0.4496811438812853  0.5231428571428571 		Uiso   ? 		N 		-0.486591
N 1.0  		0.46388160105648374 		0.6496235809080799  0.023142857142857142 		Uiso   ? 		N 		-0.489701
N 1.0  		0.46388160105648374 		0.6496235809080799  0.5231428571428571 		Uiso   ? 		N 		-0.489701
N 1.0  		0.963927033052473 		0.6496235809080799  0.023142857142857142 		Uiso   ? 		N 		-0.489701
N 1.0  		0.963927033052473 		0.6496235809080799  0.5231428571428571 		Uiso   ? 		N 		-0.489701
N 1.0  		0.06380738757389179 		0.8497553573638772  0.023142857142857142 		Uiso   ? 		N 		-0.485981
N 1.0  		0.06380738757389179 		0.8497553573638772  0.5231428571428571 		Uiso   ? 		N 		-0.485981
N 1.0  		0.5638528195698811 		0.8497553573638772  0.023142857142857142 		Uiso   ? 		N 		-0.485981
N 1.0  		0.5638528195698811 		0.8497553573638772  0.5231428571428571 		Uiso   ? 		N 		-0.485981
N 1.0  		0.12818279343479164 		0.024803465199346682  0.023142857142857142 		Uiso   ? 		N 		-0.281780
N 1.0  		0.12818279343479164 		0.024803465199346682  0.5231428571428571 		Uiso   ? 		N 		-0.281780
N 1.0  		0.6282282254307808 		0.024803465199346682  0.023142857142857142 		Uiso   ? 		N 		-0.281780
N 1.0  		0.6282282254307808 		0.024803465199346682  0.5231428571428571 		Uiso   ? 		N 		-0.281780
N 1.0  		0.4544146296063514 		0.07270634073701623  0.023142857142857142 		Uiso   ? 		N 		-0.375362
N 1.0  		0.4544146296063514 		0.07270634073701623  0.5231428571428571 		Uiso   ? 		N 		-0.375362
N 1.0  		0.9544600616023406 		0.07270634073701623  0.023142857142857142 		Uiso   ? 		N 		-0.375362
N 1.0  		0.9544600616023406 		0.07270634073701623  0.5231428571428571 		Uiso   ? 		N 		-0.375362
N 1.0  		0.22815401194818896 		0.22474590222614133  0.023142857142857142 		Uiso   ? 		N 		-0.277575
N 1.0  		0.22815401194818896 		0.22474590222614133  0.5231428571428571 		Uiso   ? 		N 		-0.277575
N 1.0  		0.7281994439441781 		0.22474590222614133  0.023142857142857142 		Uiso   ? 		N 		-0.277575
N 1.0  		0.7281994439441781 		0.22474590222614133  0.5231428571428571 		Uiso   ? 		N 		-0.277575
N 1.0  		0.054529755552762155 		0.2728381171928135  0.023142857142857142 		Uiso   ? 		N 		-0.374766
N 1.0  		0.054529755552762155 		0.2728381171928135  0.5231428571428571 		Uiso   ? 		N 		-0.374766
N 1.0  		0.5545751875487513 		0.2728381171928135  0.023142857142857142 		Uiso   ? 		N 		-0.374766
N 1.0  		0.5545751875487513 		0.2728381171928135  0.5231428571428571 		Uiso   ? 		N 		-0.374766
N 1.0  		0.32812523046158626 		0.4248776786819386  0.023142857142857142 		Uiso   ? 		N 		-0.276796
N 1.0  		0.32812523046158626 		0.4248776786819386  0.5231428571428571 		Uiso   ? 		N 		-0.276796
N 1.0  		0.8281706624575754 		0.4248776786819386  0.023142857142857142 		Uiso   ? 		N 		-0.276796
N 1.0  		0.8281706624575754 		0.4248776786819386  0.5231428571428571 		Uiso   ? 		N 		-0.276796
N 1.0  		0.15450097406615945 		0.4727805542196081  0.023142857142857142 		Uiso   ? 		N 		-0.372032
N 1.0  		0.15450097406615945 		0.4727805542196081  0.5231428571428571 		Uiso   ? 		N 		-0.372032
N 1.0  		0.6545464060621486 		0.4727805542196081  0.023142857142857142 		Uiso   ? 		N 		-0.372032
N 1.0  		0.6545464060621486 		0.4727805542196081  0.5231428571428571 		Uiso   ? 		N 		-0.372032
N 1.0  		0.4280964489749835 		0.6248201157087332  0.023142857142857142 		Uiso   ? 		N 		-0.282335
N 1.0  		0.4280964489749835 		0.6248201157087332  0.5231428571428571 		Uiso   ? 		N 		-0.282335
N 1.0  		0.9281418809709728 		0.6248201157087332  0.023142857142857142 		Uiso   ? 		N 		-0.282335
N 1.0  		0.9281418809709728 		0.6248201157087332  0.5231428571428571 		Uiso   ? 		N 		-0.282335
N 1.0  		0.2544721925795568 		0.6727229912464028  0.023142857142857142 		Uiso   ? 		N 		-0.372242
N 1.0  		0.2544721925795568 		0.6727229912464028  0.5231428571428571 		Uiso   ? 		N 		-0.372242
N 1.0  		0.7545176245755459 		0.6727229912464028  0.023142857142857142 		Uiso   ? 		N 		-0.372242
N 1.0  		0.7545176245755459 		0.6727229912464028  0.5231428571428571 		Uiso   ? 		N 		-0.372242
N 1.0  		0.028211574921394263 		0.8247625527355278  0.023142857142857142 		Uiso   ? 		N 		-0.282262
N 1.0  		0.028211574921394263 		0.8247625527355278  0.5231428571428571 		Uiso   ? 		N 		-0.282262
N 1.0  		0.5282570069173835 		0.8247625527355278  0.023142857142857142 		Uiso   ? 		N 		-0.282262
N 1.0  		0.5282570069173835 		0.8247625527355278  0.5231428571428571 		Uiso   ? 		N 		-0.282262
N 1.0  		0.3544434110929541 		0.8728547677022  0.023142857142857142 		Uiso   ? 		N 		-0.375155
N 1.0  		0.3544434110929541 		0.8728547677022  0.5231428571428571 		Uiso   ? 		N 		-0.375155
N 1.0  		0.8544888430889432 		0.8728547677022  0.023142857142857142 		Uiso   ? 		N 		-0.375155
N 1.0  		0.8544888430889432 		0.8728547677022  0.5231428571428571 		Uiso   ? 		N 		-0.375155
N 1.0  		0.3410003116337662 		0.00037867885800529287  0.023142857142857142 		Uiso   ? 		N 		-0.456030
N 1.0  		0.3410003116337662 		0.00037867885800529287  0.5231428571428571 		Uiso   ? 		N 		-0.456030
N 1.0  		0.8410457436297555 		0.00037867885800529287  0.023142857142857142 		Uiso   ? 		N 		-0.456030
N 1.0  		0.8410457436297555 		0.00037867885800529287  0.5231428571428571 		Uiso   ? 		N 		-0.456030
N 1.0  		0.44097153014716356 		0.20032111588479992  0.023142857142857142 		Uiso   ? 		N 		-0.454603
N 1.0  		0.44097153014716356 		0.20032111588479992  0.5231428571428571 		Uiso   ? 		N 		-0.454603
N 1.0  		0.9410169621431527 		0.20032111588479992  0.023142857142857142 		Uiso   ? 		N 		-0.454603
N 1.0  		0.9410169621431527 		0.20032111588479992  0.5231428571428571 		Uiso   ? 		N 		-0.454603
N 1.0  		0.041086656093574245 		0.4002635529115945  0.023142857142857142 		Uiso   ? 		N 		-0.459077
N 1.0  		0.041086656093574245 		0.4002635529115945  0.5231428571428571 		Uiso   ? 		N 		-0.459077
N 1.0  		0.5411320880895635 		0.4002635529115945  0.023142857142857142 		Uiso   ? 		N 		-0.459077
N 1.0  		0.5411320880895635 		0.4002635529115945  0.5231428571428571 		Uiso   ? 		N 		-0.459077
N 1.0  		0.14105787460697156 		0.6003953293673918  0.023142857142857142 		Uiso   ? 		N 		-0.454776
N 1.0  		0.14105787460697156 		0.6003953293673918  0.5231428571428571 		Uiso   ? 		N 		-0.454776
N 1.0  		0.6411033066029608 		0.6003953293673918  0.023142857142857142 		Uiso   ? 		N 		-0.454776
N 1.0  		0.6411033066029608 		0.6003953293673918  0.5231428571428571 		Uiso   ? 		N 		-0.454776
N 1.0  		0.24102909312036883 		0.8003377663941865  0.023142857142857142 		Uiso   ? 		N 		-0.457112
N 1.0  		0.24102909312036883 		0.8003377663941865  0.5231428571428571 		Uiso   ? 		N 		-0.457112
N 1.0  		0.7410745251163581 		0.8003377663941865  0.023142857142857142 		Uiso   ? 		N 		-0.457112
N 1.0  		0.7410745251163581 		0.8003377663941865  0.5231428571428571 		Uiso   ? 		N 		-0.457112
N 1.0  		0.33304805561565504 		0.04335872924160603  0.023142857142857142 		Uiso   ? 		N 		-0.413418
N 1.0  		0.33304805561565504 		0.04335872924160603  0.5231428571428571 		Uiso   ? 		N 		-0.413418
N 1.0  		0.8330934876116444 		0.04335872924160603  0.023142857142857142 		Uiso   ? 		N 		-0.413418
N 1.0  		0.8330934876116444 		0.04335872924160603  0.5231428571428571 		Uiso   ? 		N 		-0.413418
N 1.0  		0.24481588170042182 		0.09145094420827822  0.023142857142857142 		Uiso   ? 		N 		-0.281421
N 1.0  		0.24481588170042182 		0.09145094420827822  0.5231428571428571 		Uiso   ? 		N 		-0.281421
N 1.0  		0.7448613136964111 		0.09145094420827822  0.023142857142857142 		Uiso   ? 		N 		-0.281421
N 1.0  		0.7448613136964111 		0.09145094420827822  0.5231428571428571 		Uiso   ? 		N 		-0.281421
N 1.0  		0.43301927412905233 		0.24330116626840065  0.023142857142857142 		Uiso   ? 		N 		-0.417780
N 1.0  		0.43301927412905233 		0.24330116626840065  0.5231428571428571 		Uiso   ? 		N 		-0.417780
N 1.0  		0.9330647061250416 		0.24330116626840065  0.023142857142857142 		Uiso   ? 		N 		-0.417780
N 1.0  		0.9330647061250416 		0.24330116626840065  0.5231428571428571 		Uiso   ? 		N 		-0.417780
N 1.0  		0.3449764396428218 		0.29139338123507286  0.023142857142857142 		Uiso   ? 		N 		-0.276178
N 1.0  		0.3449764396428218 		0.29139338123507286  0.5231428571428571 		Uiso   ? 		N 		-0.276178
N 1.0  		0.845021871638811 		0.29139338123507286  0.023142857142857142 		Uiso   ? 		N 		-0.276178
N 1.0  		0.845021871638811 		0.29139338123507286  0.5231428571428571 		Uiso   ? 		N 		-0.276178
N 1.0  		0.033134400075463095 		0.4432436032951953  0.023142857142857142 		Uiso   ? 		N 		-0.423249
N 1.0  		0.033134400075463095 		0.4432436032951953  0.5231428571428571 		Uiso   ? 		N 		-0.423249
N 1.0  		0.5331798320714523 		0.4432436032951953  0.023142857142857142 		Uiso   ? 		N 		-0.423249
N 1.0  		0.5331798320714523 		0.4432436032951953  0.5231428571428571 		Uiso   ? 		N 		-0.423249
N 1.0  		0.44494765815621906 		0.49152515769087013  0.023142857142857142 		Uiso   ? 		N 		-0.279695
N 1.0  		0.44494765815621906 		0.49152515769087013  0.5231428571428571 		Uiso   ? 		N 		-0.279695
N 1.0  		0.9449930901522082 		0.49152515769087013  0.023142857142857142 		Uiso   ? 		N 		-0.279695
N 1.0  		0.9449930901522082 		0.49152515769087013  0.5231428571428571 		Uiso   ? 		N 		-0.279695
N 1.0  		0.13310561858886039 		0.6433753797509926  0.023142857142857142 		Uiso   ? 		N 		-0.414461
N 1.0  		0.13310561858886039 		0.6433753797509926  0.5231428571428571 		Uiso   ? 		N 		-0.414461
N 1.0  		0.6331510505848497 		0.6433753797509926  0.023142857142857142 		Uiso   ? 		N 		-0.414461
N 1.0  		0.6331510505848497 		0.6433753797509926  0.5231428571428571 		Uiso   ? 		N 		-0.414461
N 1.0  		0.04487344467362716 		0.6914675947176647  0.023142857142857142 		Uiso   ? 		N 		-0.281895
N 1.0  		0.04487344467362716 		0.6914675947176647  0.5231428571428571 		Uiso   ? 		N 		-0.281895
N 1.0  		0.5449188766696165 		0.6914675947176647  0.023142857142857142 		Uiso   ? 		N 		-0.281895
N 1.0  		0.5449188766696165 		0.6914675947176647  0.5231428571428571 		Uiso   ? 		N 		-0.281895
N 1.0  		0.2330768371022577 		0.8433178167777872  0.023142857142857142 		Uiso   ? 		N 		-0.416186
N 1.0  		0.2330768371022577 		0.8433178167777872  0.5231428571428571 		Uiso   ? 		N 		-0.416186
N 1.0  		0.733122269098247 		0.8433178167777872  0.023142857142857142 		Uiso   ? 		N 		-0.416186
N 1.0  		0.733122269098247 		0.8433178167777872  0.5231428571428571 		Uiso   ? 		N 		-0.416186
N 1.0  		0.14484466318702446 		0.8914100317444594  0.023142857142857142 		Uiso   ? 		N 		-0.280471
N 1.0  		0.14484466318702446 		0.8914100317444594  0.5231428571428571 		Uiso   ? 		N 		-0.280471
N 1.0  		0.6448900951830138 		0.8914100317444594  0.023142857142857142 		Uiso   ? 		N 		-0.280471
N 1.0  		0.6448900951830138 		0.8914100317444594  0.5231428571428571 		Uiso   ? 		N 		-0.280471
N 1.0  		0.4949332674129177 		0.09145094420827822  0.023142857142857142 		Uiso   ? 		N 		-0.274986
N 1.0  		0.4949332674129177 		0.09145094420827822  0.5231428571428571 		Uiso   ? 		N 		-0.274986
N 1.0  		0.9949786994089069 		0.09145094420827822  0.023142857142857142 		Uiso   ? 		N 		-0.274986
N 1.0  		0.9949786994089069 		0.09145094420827822  0.5231428571428571 		Uiso   ? 		N 		-0.274986
N 1.0  		0.09485905393032584 		0.29139338123507286  0.023142857142857142 		Uiso   ? 		N 		-0.281552
N 1.0  		0.09485905393032584 		0.29139338123507286  0.5231428571428571 		Uiso   ? 		N 		-0.281552
N 1.0  		0.5949044859263151 		0.29139338123507286  0.023142857142857142 		Uiso   ? 		N 		-0.281552
N 1.0  		0.5949044859263151 		0.29139338123507286  0.5231428571428571 		Uiso   ? 		N 		-0.281552
N 1.0  		0.1948302724437231 		0.4913358182618675  0.023142857142857142 		Uiso   ? 		N 		-0.280525
N 1.0  		0.1948302724437231 		0.4913358182618675  0.5231428571428571 		Uiso   ? 		N 		-0.280525
N 1.0  		0.6948757044397124 		0.4913358182618675  0.023142857142857142 		Uiso   ? 		N 		-0.280525
N 1.0  		0.6948757044397124 		0.4913358182618675  0.5231428571428571 		Uiso   ? 		N 		-0.280525
N 1.0  		0.29480149095712044 		0.691278255288662  0.023142857142857142 		Uiso   ? 		N 		-0.276109
N 1.0  		0.29480149095712044 		0.691278255288662  0.5231428571428571 		Uiso   ? 		N 		-0.276109
N 1.0  		0.7948469229531098 		0.691278255288662  0.023142857142857142 		Uiso   ? 		N 		-0.276109
N 1.0  		0.7948469229531098 		0.691278255288662  0.5231428571428571 		Uiso   ? 		N 		-0.276109
N 1.0  		0.39477270947051774 		0.8914100317444594  0.023142857142857142 		Uiso   ? 		N 		-0.280144
N 1.0  		0.39477270947051774 		0.8914100317444594  0.5231428571428571 		Uiso   ? 		N 		-0.280144
N 1.0  		0.894818141466507 		0.8914100317444594  0.023142857142857142 		Uiso   ? 		N 		-0.280144
N 1.0  		0.894818141466507 		0.8914100317444594  0.5231428571428571 		Uiso   ? 		N 		-0.280144
N 1.0  		0.3781108397182849 		0.024803465199346682  0.023142857142857142 		Uiso   ? 		N 		-0.279379
N 1.0  		0.3781108397182849 		0.024803465199346682  0.5231428571428571 		Uiso   ? 		N 		-0.279379
N 1.0  		0.8781562717142741 		0.024803465199346682  0.023142857142857142 		Uiso   ? 		N 		-0.279379
N 1.0  		0.8781562717142741 		0.024803465199346682  0.5231428571428571 		Uiso   ? 		N 		-0.279379
N 1.0  		0.4780820582316822 		0.22474590222614133  0.023142857142857142 		Uiso   ? 		N 		-0.281443
N 1.0  		0.4780820582316822 		0.22474590222614133  0.5231428571428571 		Uiso   ? 		N 		-0.281443
N 1.0  		0.9781274902276715 		0.22474590222614133  0.023142857142857142 		Uiso   ? 		N 		-0.281443
N 1.0  		0.9781274902276715 		0.22474590222614133  0.5231428571428571 		Uiso   ? 		N 		-0.281443
N 1.0  		0.07819718417809295 		0.4246883392529359  0.023142857142857142 		Uiso   ? 		N 		-0.281148
N 1.0  		0.07819718417809295 		0.4246883392529359  0.5231428571428571 		Uiso   ? 		N 		-0.281148
N 1.0  		0.5782426161740821 		0.4246883392529359  0.023142857142857142 		Uiso   ? 		N 		-0.281148
N 1.0  		0.5782426161740821 		0.4246883392529359  0.5231428571428571 		Uiso   ? 		N 		-0.281148
N 1.0  		0.17816840269149026 		0.6248201157087332  0.023142857142857142 		Uiso   ? 		N 		-0.281033
N 1.0  		0.17816840269149026 		0.6248201157087332  0.5231428571428571 		Uiso   ? 		N 		-0.281033
N 1.0  		0.6782138346874794 		0.6248201157087332  0.023142857142857142 		Uiso   ? 		N 		-0.281033
N 1.0  		0.6782138346874794 		0.6248201157087332  0.5231428571428571 		Uiso   ? 		N 		-0.281033
N 1.0  		0.27813962120488755 		0.8247625527355278  0.023142857142857142 		Uiso   ? 		N 		-0.281634
N 1.0  		0.27813962120488755 		0.8247625527355278  0.5231428571428571 		Uiso   ? 		N 		-0.281634
N 1.0  		0.7781850532008768 		0.8247625527355278  0.023142857142857142 		Uiso   ? 		N 		-0.281634
N 1.0  		0.7781850532008768 		0.8247625527355278  0.5231428571428571 		Uiso   ? 		N 		-0.281634
N 1.0  		0.45157453817131166 		0.11568639112061696  0.023142857142857142 		Uiso   ? 		N 		-0.425946
N 1.0  		0.45157453817131166 		0.11568639112061696  0.5231428571428571 		Uiso   ? 		N 		-0.425946
N 1.0  		0.9516199701673009 		0.11568639112061696  0.023142857142857142 		Uiso   ? 		N 		-0.425946
N 1.0  		0.9516199701673009 		0.11568639112061696  0.5231428571428571 		Uiso   ? 		N 		-0.425946
N 1.0  		0.05168966411772245 		0.31581816757641423  0.023142857142857142 		Uiso   ? 		N 		-0.429843
N 1.0  		0.05168966411772245 		0.31581816757641423  0.5231428571428571 		Uiso   ? 		N 		-0.429843
N 1.0  		0.5517350961137117 		0.31581816757641423  0.023142857142857142 		Uiso   ? 		N 		-0.429843
N 1.0  		0.5517350961137117 		0.31581816757641423  0.5231428571428571 		Uiso   ? 		N 		-0.429843
N 1.0  		0.15166088263111976 		0.5157606046032089  0.023142857142857142 		Uiso   ? 		N 		-0.430101
N 1.0  		0.15166088263111976 		0.5157606046032089  0.5231428571428571 		Uiso   ? 		N 		-0.430101
N 1.0  		0.651706314627109 		0.5157606046032089  0.023142857142857142 		Uiso   ? 		N 		-0.430101
N 1.0  		0.651706314627109 		0.5157606046032089  0.5231428571428571 		Uiso   ? 		N 		-0.430101
N 1.0  		0.251632101144517 		0.7157030416300034  0.023142857142857142 		Uiso   ? 		N 		-0.433506
N 1.0  		0.251632101144517 		0.7157030416300034  0.5231428571428571 		Uiso   ? 		N 		-0.433506
N 1.0  		0.7516775331405063 		0.7157030416300034  0.023142857142857142 		Uiso   ? 		N 		-0.433506
N 1.0  		0.7516775331405063 		0.7157030416300034  0.5231428571428571 		Uiso   ? 		N 		-0.433506
N 1.0  		0.35160331965791436 		0.9158348180858007  0.023142857142857142 		Uiso   ? 		N 		-0.429353
N 1.0  		0.35160331965791436 		0.9158348180858007  0.5231428571428571 		Uiso   ? 		N 		-0.429353
N 1.0  		0.8516487516539035 		0.9158348180858007  0.023142857142857142 		Uiso   ? 		N 		-0.429353
N 1.0  		0.8516487516539035 		0.9158348180858007  0.5231428571428571 		Uiso   ? 		N 		-0.429353
N 1.0  		0.49341855198089657 		0.13480967344988426  0.023142857142857142 		Uiso   ? 		N 		-0.484531
N 1.0  		0.49341855198089657 		0.13480967344988426  0.5231428571428571 		Uiso   ? 		N 		-0.484531
N 1.0  		0.9934639839768857 		0.13480967344988426  0.023142857142857142 		Uiso   ? 		N 		-0.484531
N 1.0  		0.9934639839768857 		0.13480967344988426  0.5231428571428571 		Uiso   ? 		N 		-0.484531
N 1.0  		0.09334433849830467 		0.33475211047667885  0.023142857142857142 		Uiso   ? 		N 		-0.487870
N 1.0  		0.09334433849830467 		0.33475211047667885  0.5231428571428571 		Uiso   ? 		N 		-0.487870
N 1.0  		0.5933897704942939 		0.33475211047667885  0.023142857142857142 		Uiso   ? 		N 		-0.487870
N 1.0  		0.5933897704942939 		0.33475211047667885  0.5231428571428571 		Uiso   ? 		N 		-0.487870
N 1.0  		0.19331555701170194 		0.5348838869324761  0.023142857142857142 		Uiso   ? 		N 		-0.487659
N 1.0  		0.19331555701170194 		0.5348838869324761  0.5231428571428571 		Uiso   ? 		N 		-0.487659
N 1.0  		0.6933609890076912 		0.5348838869324761  0.023142857142857142 		Uiso   ? 		N 		-0.487659
N 1.0  		0.6933609890076912 		0.5348838869324761  0.5231428571428571 		Uiso   ? 		N 		-0.487659
N 1.0  		0.29328677552509924 		0.7348263239592707  0.023142857142857142 		Uiso   ? 		N 		-0.489660
N 1.0  		0.29328677552509924 		0.7348263239592707  0.5231428571428571 		Uiso   ? 		N 		-0.489660
N 1.0  		0.7933322075210886 		0.7348263239592707  0.023142857142857142 		Uiso   ? 		N 		-0.489660
N 1.0  		0.7933322075210886 		0.7348263239592707  0.5231428571428571 		Uiso   ? 		N 		-0.489660
N 1.0  		0.39325799403849654 		0.9347687609860654  0.023142857142857142 		Uiso   ? 		N 		-0.487834
N 1.0  		0.39325799403849654 		0.9347687609860654  0.5231428571428571 		Uiso   ? 		N 		-0.487834
N 1.0  		0.8933034260344858 		0.9347687609860654  0.023142857142857142 		Uiso   ? 		N 		-0.487834
N 1.0  		0.8933034260344858 		0.9347687609860654  0.5231428571428571 		Uiso   ? 		N 		-0.487834
N 1.0  		0.24765597313546153 		0.04714551782165896  0.023142857142857142 		Uiso   ? 		N 		-0.452357
N 1.0  		0.24765597313546153 		0.04714551782165896  0.5231428571428571 		Uiso   ? 		N 		-0.452357
N 1.0  		0.7477014051314507 		0.04714551782165896  0.023142857142857142 		Uiso   ? 		N 		-0.452357
N 1.0  		0.7477014051314507 		0.04714551782165896  0.5231428571428571 		Uiso   ? 		N 		-0.452357
N 1.0  		0.34762719164885886 		0.24708795484845356  0.023142857142857142 		Uiso   ? 		N 		-0.451674
N 1.0  		0.34762719164885886 		0.24708795484845356  0.5231428571428571 		Uiso   ? 		N 		-0.451674
N 1.0  		0.8476726236448481 		0.24708795484845356  0.023142857142857142 		Uiso   ? 		N 		-0.451674
N 1.0  		0.8476726236448481 		0.24708795484845356  0.5231428571428571 		Uiso   ? 		N 		-0.451674
N 1.0  		0.4475984101622561 		0.44721973130425086  0.023142857142857142 		Uiso   ? 		N 		-0.459281
N 1.0  		0.4475984101622561 		0.44721973130425086  0.5231428571428571 		Uiso   ? 		N 		-0.459281
N 1.0  		0.9476438421582454 		0.44721973130425086  0.023142857142857142 		Uiso   ? 		N 		-0.459281
N 1.0  		0.9476438421582454 		0.44721973130425086  0.5231428571428571 		Uiso   ? 		N 		-0.459281
N 1.0  		0.04752419667966421 		0.6471621683310455  0.023142857142857142 		Uiso   ? 		N 		-0.459848
N 1.0  		0.04752419667966421 		0.6471621683310455  0.5231428571428571 		Uiso   ? 		N 		-0.459848
N 1.0  		0.5475696286756534 		0.6471621683310455  0.023142857142857142 		Uiso   ? 		N 		-0.459848
N 1.0  		0.5475696286756534 		0.6471621683310455  0.5231428571428571 		Uiso   ? 		N 		-0.459848
N 1.0  		0.14768475462206415 		0.8471046053578402  0.023142857142857142 		Uiso   ? 		N 		-0.454823
N 1.0  		0.14768475462206415 		0.8471046053578402  0.5231428571428571 		Uiso   ? 		N 		-0.454823
N 1.0  		0.6477301866180534 		0.8471046053578402  0.023142857142857142 		Uiso   ? 		N 		-0.454823
N 1.0  		0.6477301866180534 		0.8471046053578402  0.5231428571428571 		Uiso   ? 		N 		-0.454823
N 1.0  		0.2434905056974033 		0.13499901287888688  0.023142857142857142 		Uiso   ? 		N 		-0.483101
N 1.0  		0.2434905056974033 		0.13499901287888688  0.5231428571428571 		Uiso   ? 		N 		-0.483101
N 1.0  		0.7435359376933925 		0.13499901287888688  0.023142857142857142 		Uiso   ? 		N 		-0.483101
N 1.0  		0.7435359376933925 		0.13499901287888688  0.5231428571428571 		Uiso   ? 		N 		-0.483101
N 1.0  		0.3434617242108006 		0.3349414499056815  0.023142857142857142 		Uiso   ? 		N 		-0.484119
N 1.0  		0.3434617242108006 		0.3349414499056815  0.5231428571428571 		Uiso   ? 		N 		-0.484119
N 1.0  		0.8435071562067898 		0.3349414499056815  0.023142857142857142 		Uiso   ? 		N 		-0.484119
N 1.0  		0.8435071562067898 		0.3349414499056815  0.5231428571428571 		Uiso   ? 		N 		-0.484119
N 1.0  		0.44343294272419786 		0.5348838869324761  0.023142857142857142 		Uiso   ? 		N 		-0.494459
N 1.0  		0.44343294272419786 		0.5348838869324761  0.5231428571428571 		Uiso   ? 		N 		-0.494459
N 1.0  		0.943478374720187 		0.5348838869324761  0.023142857142857142 		Uiso   ? 		N 		-0.494459
N 1.0  		0.943478374720187 		0.5348838869324761  0.5231428571428571 		Uiso   ? 		N 		-0.494459
N 1.0  		0.04354806867060864 		0.7350156633882734  0.023142857142857142 		Uiso   ? 		N 		-0.485043
N 1.0  		0.04354806867060864 		0.7350156633882734  0.5231428571428571 		Uiso   ? 		N 		-0.485043
N 1.0  		0.5435935006665978 		0.7350156633882734  0.023142857142857142 		Uiso   ? 		N 		-0.485043
N 1.0  		0.5435935006665978 		0.7350156633882734  0.5231428571428571 		Uiso   ? 		N 		-0.485043
N 1.0  		0.14351928718400594 		0.934958100415068  0.023142857142857142 		Uiso   ? 		N 		-0.486385
N 1.0  		0.14351928718400594 		0.934958100415068  0.5231428571428571 		Uiso   ? 		N 		-0.486385
N 1.0  		0.6435647191799951 		0.934958100415068  0.023142857142857142 		Uiso   ? 		N 		-0.486385
N 1.0  		0.6435647191799951 		0.934958100415068  0.5231428571428571 		Uiso   ? 		N 		-0.486385
N 1.0  		0.20448658332285816 		0.07289568016601887  0.023142857142857142 		Uiso   ? 		N 		-0.375238
N 1.0  		0.20448658332285816 		0.07289568016601887  0.5231428571428571 		Uiso   ? 		N 		-0.375238
N 1.0  		0.7045320153188473 		0.07289568016601887  0.023142857142857142 		Uiso   ? 		N 		-0.375238
N 1.0  		0.7045320153188473 		0.07289568016601887  0.5231428571428571 		Uiso   ? 		N 		-0.375238
N 1.0  		0.3044578018362555 		0.2728381171928135  0.023142857142857142 		Uiso   ? 		N 		-0.374610
N 1.0  		0.3044578018362555 		0.2728381171928135  0.5231428571428571 		Uiso   ? 		N 		-0.374610
N 1.0  		0.8045032338322445 		0.2728381171928135  0.023142857142857142 		Uiso   ? 		N 		-0.374610
N 1.0  		0.8045032338322445 		0.2728381171928135  0.5231428571428571 		Uiso   ? 		N 		-0.374610
N 1.0  		0.4044290203496527 		0.4729698936486108  0.023142857142857142 		Uiso   ? 		N 		-0.375108
N 1.0  		0.4044290203496527 		0.4729698936486108  0.5231428571428571 		Uiso   ? 		N 		-0.375108
N 1.0  		0.9044744523456419 		0.4729698936486108  0.023142857142857142 		Uiso   ? 		N 		-0.375108
N 1.0  		0.9044744523456419 		0.4729698936486108  0.5231428571428571 		Uiso   ? 		N 		-0.375108
N 1.0  		0.004544146296063473 		0.6729123306754053  0.023142857142857142 		Uiso   ? 		N 		-0.376044
N 1.0  		0.004544146296063473 		0.6729123306754053  0.5231428571428571 		Uiso   ? 		N 		-0.376044
N 1.0  		0.5045895782920528 		0.6729123306754053  0.023142857142857142 		Uiso   ? 		N 		-0.376044
N 1.0  		0.5045895782920528 		0.6729123306754053  0.5231428571428571 		Uiso   ? 		N 		-0.376044
N 1.0  		0.10451536480946078 		0.8728547677022  0.023142857142857142 		Uiso   ? 		N 		-0.372437
N 1.0  		0.10451536480946078 		0.8728547677022  0.5231428571428571 		Uiso   ? 		N 		-0.372437
N 1.0  		0.60456079680545 		0.8728547677022  0.023142857142857142 		Uiso   ? 		N 		-0.372437
N 1.0  		0.60456079680545 		0.8728547677022  0.5231428571428571 		Uiso   ? 		N 		-0.372437
N 1.0  		0.08312000933216178 		0.04335872924160603  0.023142857142857142 		Uiso   ? 		N 		-0.415653
N 1.0  		0.08312000933216178 		0.04335872924160603  0.5231428571428571 		Uiso   ? 		N 		-0.415653
N 1.0  		0.583165441328151 		0.04335872924160603  0.023142857142857142 		Uiso   ? 		N 		-0.415653
N 1.0  		0.583165441328151 		0.04335872924160603  0.5231428571428571 		Uiso   ? 		N 		-0.415653
N 1.0  		0.18309122784555906 		0.24330116626840065  0.023142857142857142 		Uiso   ? 		N 		-0.418255
N 1.0  		0.18309122784555906 		0.24330116626840065  0.5231428571428571 		Uiso   ? 		N 		-0.418255
N 1.0  		0.6831366598415483 		0.24330116626840065  0.023142857142857142 		Uiso   ? 		N 		-0.418255
N 1.0  		0.6831366598415483 		0.24330116626840065  0.5231428571428571 		Uiso   ? 		N 		-0.418255
N 1.0  		0.28306244635895644 		0.4434329427241979  0.023142857142857142 		Uiso   ? 		N 		-0.415207
N 1.0  		0.28306244635895644 		0.4434329427241979  0.5231428571428571 		Uiso   ? 		N 		-0.415207
N 1.0  		0.7831078783549457 		0.4434329427241979  0.023142857142857142 		Uiso   ? 		N 		-0.415207
N 1.0  		0.7831078783549457 		0.4434329427241979  0.5231428571428571 		Uiso   ? 		N 		-0.415207
N 1.0  		0.3832230043013563 		0.6433753797509926  0.023142857142857142 		Uiso   ? 		N 		-0.417905
N 1.0  		0.3832230043013563 		0.6433753797509926  0.5231428571428571 		Uiso   ? 		N 		-0.417905
N 1.0  		0.8832684362973455 		0.6433753797509926  0.023142857142857142 		Uiso   ? 		N 		-0.417905
N 1.0  		0.8832684362973455 		0.6433753797509926  0.5231428571428571 		Uiso   ? 		N 		-0.417905
N 1.0  		0.4831942228147536 		0.8433178167777872  0.023142857142857142 		Uiso   ? 		N 		-0.420930
N 1.0  		0.4831942228147536 		0.8433178167777872  0.5231428571428571 		Uiso   ? 		N 		-0.420930
N 1.0  		0.9832396548107428 		0.8433178167777872  0.023142857142857142 		Uiso   ? 		N 		-0.420930
N 1.0  		0.9832396548107428 		0.8433178167777872  0.5231428571428571 		Uiso   ? 		N 		-0.420930
N 1.0  		0.11985185855867518 		0.06910889158596595  0.023142857142857142 		Uiso   ? 		N 		-0.536527
N 1.0  		0.11985185855867518 		0.06910889158596595  0.5231428571428571 		Uiso   ? 		N 		-0.536527
N 1.0  		0.6198972905546644 		0.06910889158596595  0.023142857142857142 		Uiso   ? 		N 		-0.536527
N 1.0  		0.6198972905546644 		0.06910889158596595  0.5231428571428571 		Uiso   ? 		N 		-0.536527
N 1.0  		0.21982307707207246 		0.2692406680417632  0.023142857142857142 		Uiso   ? 		N 		-0.530187
N 1.0  		0.21982307707207246 		0.2692406680417632  0.5231428571428571 		Uiso   ? 		N 		-0.530187
N 1.0  		0.7198685090680617 		0.2692406680417632  0.023142857142857142 		Uiso   ? 		N 		-0.530187
N 1.0  		0.7198685090680617 		0.2692406680417632  0.5231428571428571 		Uiso   ? 		N 		-0.530187
N 1.0  		0.3197942955854698 		0.46918310506855787  0.023142857142857142 		Uiso   ? 		N 		-0.531478
N 1.0  		0.3197942955854698 		0.46918310506855787  0.5231428571428571 		Uiso   ? 		N 		-0.531478
N 1.0  		0.8198397275814591 		0.46918310506855787  0.023142857142857142 		Uiso   ? 		N 		-0.531478
N 1.0  		0.8198397275814591 		0.46918310506855787  0.5231428571428571 		Uiso   ? 		N 		-0.531478
N 1.0  		0.4197655140988671 		0.6691255420953525  0.023142857142857142 		Uiso   ? 		N 		-0.533185
N 1.0  		0.4197655140988671 		0.6691255420953525  0.5231428571428571 		Uiso   ? 		N 		-0.533185
N 1.0  		0.9198109460948563 		0.6691255420953525  0.023142857142857142 		Uiso   ? 		N 		-0.533185
N 1.0  		0.9198109460948563 		0.6691255420953525  0.5231428571428571 		Uiso   ? 		N 		-0.533185
N 1.0  		0.01988064004527782 		0.8690679791221471  0.023142857142857142 		Uiso   ? 		N 		-0.534673
N 1.0  		0.01988064004527782 		0.8690679791221471  0.5231428571428571 		Uiso   ? 		N 		-0.534673
N 1.0  		0.5199260720412671 		0.8690679791221471  0.023142857142857142 		Uiso   ? 		N 		-0.534673
N 1.0  		0.5199260720412671 		0.8690679791221471  0.5231428571428571 		Uiso   ? 		N 		-0.534673
N 1.0  		0.07573577160105857 		0.08652811905420942  0.023142857142857142 		Uiso   ? 		N 		-0.419872
N 1.0  		0.07573577160105857 		0.08652811905420942  0.5231428571428571 		Uiso   ? 		N 		-0.419872
N 1.0  		0.5757812035970478 		0.08652811905420942  0.023142857142857142 		Uiso   ? 		N 		-0.419872
N 1.0  		0.5757812035970478 		0.08652811905420942  0.5231428571428571 		Uiso   ? 		N 		-0.419872
N 1.0  		0.17570699011445587 		0.286470556081004  0.023142857142857142 		Uiso   ? 		N 		-0.420858
N 1.0  		0.17570699011445587 		0.286470556081004  0.5231428571428571 		Uiso   ? 		N 		-0.420858
N 1.0  		0.6757524221104451 		0.286470556081004  0.023142857142857142 		Uiso   ? 		N 		-0.420858
N 1.0  		0.6757524221104451 		0.286470556081004  0.5231428571428571 		Uiso   ? 		N 		-0.420858
N 1.0  		0.27567820862785314 		0.4866023325368013  0.023142857142857142 		Uiso   ? 		N 		-0.419958
N 1.0  		0.27567820862785314 		0.4866023325368013  0.5231428571428571 		Uiso   ? 		N 		-0.419958
N 1.0  		0.7757236406238425 		0.4866023325368013  0.023142857142857142 		Uiso   ? 		N 		-0.419958
N 1.0  		0.7757236406238425 		0.4866023325368013  0.5231428571428571 		Uiso   ? 		N 		-0.419958
N 1.0  		0.37564942714125044 		0.6865447695635959  0.023142857142857142 		Uiso   ? 		N 		-0.418523
N 1.0  		0.37564942714125044 		0.6865447695635959  0.5231428571428571 		Uiso   ? 		N 		-0.418523
N 1.0  		0.8756948591372397 		0.6865447695635959  0.023142857142857142 		Uiso   ? 		N 		-0.418523
N 1.0  		0.8756948591372397 		0.6865447695635959  0.5231428571428571 		Uiso   ? 		N 		-0.418523
N 1.0  		0.47562064565464773 		0.8864872065903906  0.023142857142857142 		Uiso   ? 		N 		-0.413773
N 1.0  		0.47562064565464773 		0.8864872065903906  0.5231428571428571 		Uiso   ? 		N 		-0.413773
N 1.0  		0.975666077650637 		0.8864872065903906  0.023142857142857142 		Uiso   ? 		N 		-0.413773
N 1.0  		0.975666077650637 		0.8864872065903906  0.5231428571428571 		Uiso   ? 		N 		-0.413773
N 1.0  		0.03521713379449223 		0.11133158425355609  0.023142857142857142 		Uiso   ? 		N 		-0.534185
N 1.0  		0.03521713379449223 		0.11133158425355609  0.5231428571428571 		Uiso   ? 		N 		-0.534185
N 1.0  		0.5352625657904815 		0.11133158425355609  0.023142857142857142 		Uiso   ? 		N 		-0.534185
N 1.0  		0.5352625657904815 		0.11133158425355609  0.5231428571428571 		Uiso   ? 		N 		-0.534185
N 1.0  		0.13537769173689215 		0.3112740212803507  0.023142857142857142 		Uiso   ? 		N 		-0.534007
N 1.0  		0.13537769173689215 		0.3112740212803507  0.5231428571428571 		Uiso   ? 		N 		-0.534007
N 1.0  		0.6354231237328813 		0.3112740212803507  0.023142857142857142 		Uiso   ? 		N 		-0.534007
N 1.0  		0.6354231237328813 		0.3112740212803507  0.5231428571428571 		Uiso   ? 		N 		-0.534007
N 1.0  		0.2353489102502895 		0.511405797736148  0.023142857142857142 		Uiso   ? 		N 		-0.530986
N 1.0  		0.2353489102502895 		0.511405797736148  0.5231428571428571 		Uiso   ? 		N 		-0.530986
N 1.0  		0.7353943422462786 		0.511405797736148  0.023142857142857142 		Uiso   ? 		N 		-0.530986
N 1.0  		0.7353943422462786 		0.511405797736148  0.5231428571428571 		Uiso   ? 		N 		-0.530986
N 1.0  		0.3353201287636867 		0.7113482347629426  0.023142857142857142 		Uiso   ? 		N 		-0.528961
N 1.0  		0.3353201287636867 		0.7113482347629426  0.5231428571428571 		Uiso   ? 		N 		-0.528961
N 1.0  		0.835365560759676 		0.7113482347629426  0.023142857142857142 		Uiso   ? 		N 		-0.528961
N 1.0  		0.835365560759676 		0.7113482347629426  0.5231428571428571 		Uiso   ? 		N 		-0.528961
N 1.0  		0.4352913472770841 		0.9112906717897372  0.023142857142857142 		Uiso   ? 		N 		-0.533069
N 1.0  		0.4352913472770841 		0.9112906717897372  0.5231428571428571 		Uiso   ? 		N 		-0.533069
N 1.0  		0.9353367792730732 		0.9112906717897372  0.023142857142857142 		Uiso   ? 		N 		-0.533069
N 1.0  		0.9353367792730732 		0.9112906717897372  0.5231428571428571 		Uiso   ? 		N 		-0.533069
N 1.0  		0.09107226535027292 		0.00037867885800529287  0.023142857142857142 		Uiso   ? 		N 		-0.456061
N 1.0  		0.09107226535027292 		0.00037867885800529287  0.5231428571428571 		Uiso   ? 		N 		-0.456061
N 1.0  		0.5911176973462621 		0.00037867885800529287  0.023142857142857142 		Uiso   ? 		N 		-0.456061
N 1.0  		0.5911176973462621 		0.00037867885800529287  0.5231428571428571 		Uiso   ? 		N 		-0.456061
N 1.0  		0.19104348386367023 		0.20051045531380254  0.023142857142857142 		Uiso   ? 		N 		-0.460045
N 1.0  		0.19104348386367023 		0.20051045531380254  0.5231428571428571 		Uiso   ? 		N 		-0.460045
N 1.0  		0.6910889158596594 		0.20051045531380254  0.023142857142857142 		Uiso   ? 		N 		-0.460045
N 1.0  		0.6910889158596594 		0.20051045531380254  0.5231428571428571 		Uiso   ? 		N 		-0.460045
N 1.0  		0.29101470237706756 		0.4004528923405972  0.023142857142857142 		Uiso   ? 		N 		-0.455971
N 1.0  		0.29101470237706756 		0.4004528923405972  0.5231428571428571 		Uiso   ? 		N 		-0.455971
N 1.0  		0.7910601343730568 		0.4004528923405972  0.023142857142857142 		Uiso   ? 		N 		-0.455971
N 1.0  		0.7910601343730568 		0.4004528923405972  0.5231428571428571 		Uiso   ? 		N 		-0.455971
N 1.0  		0.3911752603194674 		0.6003953293673918  0.023142857142857142 		Uiso   ? 		N 		-0.458545
N 1.0  		0.3911752603194674 		0.6003953293673918  0.5231428571428571 		Uiso   ? 		N 		-0.458545
N 1.0  		0.8912206923154566 		0.6003953293673918  0.023142857142857142 		Uiso   ? 		N 		-0.458545
N 1.0  		0.8912206923154566 		0.6003953293673918  0.5231428571428571 		Uiso   ? 		N 		-0.458545
N 1.0  		0.4911464788328647 		0.8003377663941865  0.023142857142857142 		Uiso   ? 		N 		-0.458036
N 1.0  		0.4911464788328647 		0.8003377663941865  0.5231428571428571 		Uiso   ? 		N 		-0.458036
N 1.0  		0.991191910828854 		0.8003377663941865  0.023142857142857142 		Uiso   ? 		N 		-0.458036
N 1.0  		0.991191910828854 		0.8003377663941865  0.5231428571428571 		Uiso   ? 		N 		-0.458036
N 1.0  		0.20164649188781844 		0.11587573054961961  0.023142857142857142 		Uiso   ? 		N 		-0.427255
N 1.0  		0.20164649188781844 		0.11587573054961961  0.5231428571428571 		Uiso   ? 		N 		-0.427255
N 1.0  		0.7016919238838076 		0.11587573054961961  0.023142857142857142 		Uiso   ? 		N 		-0.427255
N 1.0  		0.7016919238838076 		0.11587573054961961  0.5231428571428571 		Uiso   ? 		N 		-0.427255
N 1.0  		0.30161771040121577 		0.31581816757641423  0.023142857142857142 		Uiso   ? 		N 		-0.424547
N 1.0  		0.30161771040121577 		0.31581816757641423  0.5231428571428571 		Uiso   ? 		N 		-0.424547
N 1.0  		0.8016631423972049 		0.31581816757641423  0.023142857142857142 		Uiso   ? 		N 		-0.424547
N 1.0  		0.8016631423972049 		0.31581816757641423  0.5231428571428571 		Uiso   ? 		N 		-0.424547
N 1.0  		0.40177826834361563 		0.5159499440322115  0.023142857142857142 		Uiso   ? 		N 		-0.429295
N 1.0  		0.40177826834361563 		0.5159499440322115  0.5231428571428571 		Uiso   ? 		N 		-0.429295
N 1.0  		0.9018237003396049 		0.5159499440322115  0.023142857142857142 		Uiso   ? 		N 		-0.429295
N 1.0  		0.9018237003396049 		0.5159499440322115  0.5231428571428571 		Uiso   ? 		N 		-0.429295
N 1.0  		0.001704054861023774 		0.7158923810590061  0.023142857142857142 		Uiso   ? 		N 		-0.430254
N 1.0  		0.001704054861023774 		0.7158923810590061  0.5231428571428571 		Uiso   ? 		N 		-0.430254
N 1.0  		0.501749486857013 		0.7158923810590061  0.023142857142857142 		Uiso   ? 		N 		-0.430254
N 1.0  		0.501749486857013 		0.7158923810590061  0.5231428571428571 		Uiso   ? 		N 		-0.430254
N 1.0  		0.10167527337442107 		0.9158348180858007  0.023142857142857142 		Uiso   ? 		N 		-0.429058
N 1.0  		0.10167527337442107 		0.9158348180858007  0.5231428571428571 		Uiso   ? 		N 		-0.429058
N 1.0  		0.6017207053704102 		0.9158348180858007  0.023142857142857142 		Uiso   ? 		N 		-0.429058
N 1.0  		0.6017207053704102 		0.9158348180858007  0.5231428571428571 		Uiso   ? 		N 		-0.429058
N 1.0  		0.20107847360081052 		0.15809842321720977  0.023142857142857142 		Uiso   ? 		N 		-0.349365
N 1.0  		0.20107847360081052 		0.15809842321720977  0.5231428571428571 		Uiso   ? 		N 		-0.349365
N 1.0  		0.7011239055967997 		0.15809842321720977  0.023142857142857142 		Uiso   ? 		N 		-0.349365
N 1.0  		0.7011239055967997 		0.15809842321720977  0.5231428571428571 		Uiso   ? 		N 		-0.349365
N 1.0  		0.30104969211420785 		0.358230199673007  0.023142857142857142 		Uiso   ? 		N 		-0.350357
N 1.0  		0.30104969211420785 		0.358230199673007  0.5231428571428571 		Uiso   ? 		N 		-0.350357
N 1.0  		0.801095124110197 		0.358230199673007  0.023142857142857142 		Uiso   ? 		N 		-0.350357
N 1.0  		0.801095124110197 		0.358230199673007  0.5231428571428571 		Uiso   ? 		N 		-0.350357
N 1.0  		0.40102091062760503 		0.5581726366998017  0.023142857142857142 		Uiso   ? 		N 		-0.353733
N 1.0  		0.40102091062760503 		0.5581726366998017  0.5231428571428571 		Uiso   ? 		N 		-0.353733
N 1.0  		0.9010663426235944 		0.5581726366998017  0.023142857142857142 		Uiso   ? 		N 		-0.353733
N 1.0  		0.9010663426235944 		0.5581726366998017  0.5231428571428571 		Uiso   ? 		N 		-0.353733
N 1.0  		0.0011360365740158323 		0.7581150737265961  0.023142857142857142 		Uiso   ? 		N 		-0.347325
N 1.0  		0.0011360365740158323 		0.7581150737265961  0.5231428571428571 		Uiso   ? 		N 		-0.347325
N 1.0  		0.501181468570005 		0.7581150737265961  0.023142857142857142 		Uiso   ? 		N 		-0.347325
N 1.0  		0.501181468570005 		0.7581150737265961  0.5231428571428571 		Uiso   ? 		N 		-0.347325
N 1.0  		0.10110725508741314 		0.9580575107533909  0.023142857142857142 		Uiso   ? 		N 		-0.347768
N 1.0  		0.10110725508741314 		0.9580575107533909  0.5231428571428571 		Uiso   ? 		N 		-0.347768
N 1.0  		0.6011526870834022 		0.9580575107533909  0.023142857142857142 		Uiso   ? 		N 		-0.347768
N 1.0  		0.6011526870834022 		0.9580575107533909  0.5231428571428571 		Uiso   ? 		N 		-0.347768
N 1.0  		0.2853345195069881 		0.11133158425355609  0.12314285714285714 		Uiso   ? 		N 		-0.532977
N 1.0  		0.2853345195069881 		0.11133158425355609  0.6231428571428571 		Uiso   ? 		N 		-0.532977
N 1.0  		0.7853799515029773 		0.11133158425355609  0.12314285714285714 		Uiso   ? 		N 		-0.532977
N 1.0  		0.7853799515029773 		0.11133158425355609  0.6231428571428571 		Uiso   ? 		N 		-0.532977
N 1.0  		0.3853057380203855 		0.3114633607093534  0.12314285714285714 		Uiso   ? 		N 		-0.534831
N 1.0  		0.3853057380203855 		0.3114633607093534  0.6231428571428571 		Uiso   ? 		N 		-0.534831
N 1.0  		0.8853511700163748 		0.3114633607093534  0.12314285714285714 		Uiso   ? 		N 		-0.534831
N 1.0  		0.8853511700163748 		0.3114633607093534  0.6231428571428571 		Uiso   ? 		N 		-0.534831
N 1.0  		0.4852769565337828 		0.511405797736148  0.12314285714285714 		Uiso   ? 		N 		-0.533445
N 1.0  		0.4852769565337828 		0.511405797736148  0.6231428571428571 		Uiso   ? 		N 		-0.533445
N 1.0  		0.9853223885297719 		0.511405797736148  0.12314285714285714 		Uiso   ? 		N 		-0.533445
N 1.0  		0.9853223885297719 		0.511405797736148  0.6231428571428571 		Uiso   ? 		N 		-0.533445
N 1.0  		0.08539208248019349 		0.7113482347629426  0.12314285714285714 		Uiso   ? 		N 		-0.534069
N 1.0  		0.08539208248019349 		0.7113482347629426  0.6231428571428571 		Uiso   ? 		N 		-0.534069
N 1.0  		0.5854375144761828 		0.7113482347629426  0.12314285714285714 		Uiso   ? 		N 		-0.534069
N 1.0  		0.5854375144761828 		0.7113482347629426  0.6231428571428571 		Uiso   ? 		N 		-0.534069
N 1.0  		0.1853633009935908 		0.9112906717897372  0.12314285714285714 		Uiso   ? 		N 		-0.536227
N 1.0  		0.1853633009935908 		0.9112906717897372  0.6231428571428571 		Uiso   ? 		N 		-0.536227
N 1.0  		0.6854087329895799 		0.9112906717897372  0.12314285714285714 		Uiso   ? 		N 		-0.536227
N 1.0  		0.6854087329895799 		0.9112906717897372  0.6231428571428571 		Uiso   ? 		N 		-0.536227
N 1.0  		0.45782273932839906 		0.029726290353415487  0.12314285714285714 		Uiso   ? 		N 		-0.346467
N 1.0  		0.45782273932839906 		0.029726290353415487  0.6231428571428571 		Uiso   ? 		N 		-0.346467
N 1.0  		0.9578681713243883 		0.029726290353415487  0.12314285714285714 		Uiso   ? 		N 		-0.346467
N 1.0  		0.9578681713243883 		0.029726290353415487  0.6231428571428571 		Uiso   ? 		N 		-0.346467
N 1.0  		0.05774852584580714 		0.22966872738021013  0.12314285714285714 		Uiso   ? 		N 		-0.351186
N 1.0  		0.05774852584580714 		0.22966872738021013  0.6231428571428571 		Uiso   ? 		N 		-0.351186
N 1.0  		0.5577939578417964 		0.22966872738021013  0.12314285714285714 		Uiso   ? 		N 		-0.351186
N 1.0  		0.5577939578417964 		0.22966872738021013  0.6231428571428571 		Uiso   ? 		N 		-0.351186
N 1.0  		0.15771974435920444 		0.42961116440700475  0.12314285714285714 		Uiso   ? 		N 		-0.347132
N 1.0  		0.15771974435920444 		0.42961116440700475  0.6231428571428571 		Uiso   ? 		N 		-0.347132
N 1.0  		0.6577651763551937 		0.42961116440700475  0.12314285714285714 		Uiso   ? 		N 		-0.347132
N 1.0  		0.6577651763551937 		0.42961116440700475  0.6231428571428571 		Uiso   ? 		N 		-0.347132
N 1.0  		0.25769096287260174 		0.629742940862802  0.12314285714285714 		Uiso   ? 		N 		-0.348366
N 1.0  		0.25769096287260174 		0.629742940862802  0.6231428571428571 		Uiso   ? 		N 		-0.348366
N 1.0  		0.7577363948685909 		0.629742940862802  0.12314285714285714 		Uiso   ? 		N 		-0.348366
N 1.0  		0.7577363948685909 		0.629742940862802  0.6231428571428571 		Uiso   ? 		N 		-0.348366
N 1.0  		0.35785152081500166 		0.8296853778895965  0.12314285714285714 		Uiso   ? 		N 		-0.348195
N 1.0  		0.35785152081500166 		0.8296853778895965  0.6231428571428571 		Uiso   ? 		N 		-0.348195
N 1.0  		0.8578969528109909 		0.8296853778895965  0.12314285714285714 		Uiso   ? 		N 		-0.348195
N 1.0  		0.8578969528109909 		0.8296853778895965  0.6231428571428571 		Uiso   ? 		N 		-0.348195
N 1.0  		0.4975840194189548 		0.04695617839265631  0.12314285714285714 		Uiso   ? 		N 		-0.457117
N 1.0  		0.4975840194189548 		0.04695617839265631  0.6231428571428571 		Uiso   ? 		N 		-0.457117
N 1.0  		0.997629451414944 		0.04695617839265631  0.12314285714285714 		Uiso   ? 		N 		-0.457117
N 1.0  		0.997629451414944 		0.04695617839265631  0.6231428571428571 		Uiso   ? 		N 		-0.457117
N 1.0  		0.0975098059363629 		0.24708795484845356  0.12314285714285714 		Uiso   ? 		N 		-0.458268
N 1.0  		0.0975098059363629 		0.24708795484845356  0.6231428571428571 		Uiso   ? 		N 		-0.458268
N 1.0  		0.5975552379323521 		0.24708795484845356  0.12314285714285714 		Uiso   ? 		N 		-0.458268
N 1.0  		0.5975552379323521 		0.24708795484845356  0.6231428571428571 		Uiso   ? 		N 		-0.458268
N 1.0  		0.19767036387876286 		0.44703039187524823  0.12314285714285714 		Uiso   ? 		N 		-0.459144
N 1.0  		0.19767036387876286 		0.44703039187524823  0.6231428571428571 		Uiso   ? 		N 		-0.459144
N 1.0  		0.6977157958747521 		0.44703039187524823  0.12314285714285714 		Uiso   ? 		N 		-0.459144
N 1.0  		0.6977157958747521 		0.44703039187524823  0.6231428571428571 		Uiso   ? 		N 		-0.459144
N 1.0  		0.29764158239216015 		0.6469728289020428  0.12314285714285714 		Uiso   ? 		N 		-0.455069
N 1.0  		0.29764158239216015 		0.6469728289020428  0.6231428571428571 		Uiso   ? 		N 		-0.455069
N 1.0  		0.7976870143881494 		0.6469728289020428  0.12314285714285714 		Uiso   ? 		N 		-0.455069
N 1.0  		0.7976870143881494 		0.6469728289020428  0.6231428571428571 		Uiso   ? 		N 		-0.455069
N 1.0  		0.39761280090555745 		0.8471046053578402  0.12314285714285714 		Uiso   ? 		N 		-0.458005
N 1.0  		0.39761280090555745 		0.8471046053578402  0.6231428571428571 		Uiso   ? 		N 		-0.458005
N 1.0  		0.8976582329015467 		0.8471046053578402  0.12314285714285714 		Uiso   ? 		N 		-0.458005
N 1.0  		0.8976582329015467 		0.8471046053578402  0.6231428571428571 		Uiso   ? 		N 		-0.458005
N 1.0  		0.32566381788455184 		0.08652811905420942  0.12314285714285714 		Uiso   ? 		N 		-0.419833
N 1.0  		0.32566381788455184 		0.08652811905420942  0.6231428571428571 		Uiso   ? 		N 		-0.419833
N 1.0  		0.825709249880541 		0.08652811905420942  0.12314285714285714 		Uiso   ? 		N 		-0.419833
N 1.0  		0.825709249880541 		0.08652811905420942  0.6231428571428571 		Uiso   ? 		N 		-0.419833
N 1.0  		0.4258243758269518 		0.286470556081004  0.12314285714285714 		Uiso   ? 		N 		-0.422191
N 1.0  		0.4258243758269518 		0.286470556081004  0.6231428571428571 		Uiso   ? 		N 		-0.422191
N 1.0  		0.9258698078229409 		0.286470556081004  0.12314285714285714 		Uiso   ? 		N 		-0.422191
N 1.0  		0.9258698078229409 		0.286470556081004  0.6231428571428571 		Uiso   ? 		N 		-0.422191
N 1.0  		0.025750162344359884 		0.4864129931077987  0.12314285714285714 		Uiso   ? 		N 		-0.419282
N 1.0  		0.025750162344359884 		0.4864129931077987  0.6231428571428571 		Uiso   ? 		N 		-0.419282
N 1.0  		0.5257955943403492 		0.4864129931077987  0.12314285714285714 		Uiso   ? 		N 		-0.419282
N 1.0  		0.5257955943403492 		0.4864129931077987  0.6231428571428571 		Uiso   ? 		N 		-0.419282
N 1.0  		0.12572138085775716 		0.6865447695635959  0.12314285714285714 		Uiso   ? 		N 		-0.418649
N 1.0  		0.12572138085775716 		0.6865447695635959  0.6231428571428571 		Uiso   ? 		N 		-0.418649
N 1.0  		0.6257668128537465 		0.6865447695635959  0.12314285714285714 		Uiso   ? 		N 		-0.418649
N 1.0  		0.6257668128537465 		0.6865447695635959  0.6231428571428571 		Uiso   ? 		N 		-0.418649
N 1.0  		0.22569259937115446 		0.8864872065903906  0.12314285714285714 		Uiso   ? 		N 		-0.419638
N 1.0  		0.22569259937115446 		0.8864872065903906  0.6231428571428571 		Uiso   ? 		N 		-0.419638
N 1.0  		0.7257380313671438 		0.8864872065903906  0.12314285714285714 		Uiso   ? 		N 		-0.419638
N 1.0  		0.7257380313671438 		0.8864872065903906  0.6231428571428571 		Uiso   ? 		N 		-0.419638
N 1.0  		0.17362425639542678 		0.004922825154068807  0.12314285714285714 		Uiso   ? 		N 		-0.429037
N 1.0  		0.17362425639542678 		0.004922825154068807  0.6231428571428571 		Uiso   ? 		N 		-0.429037
N 1.0  		0.6736696883914159 		0.004922825154068807  0.12314285714285714 		Uiso   ? 		N 		-0.429037
N 1.0  		0.6736696883914159 		0.004922825154068807  0.6231428571428571 		Uiso   ? 		N 		-0.429037
N 1.0  		0.2735954749088241 		0.20486526218086346  0.12314285714285714 		Uiso   ? 		N 		-0.425128
N 1.0  		0.2735954749088241 		0.20486526218086346  0.6231428571428571 		Uiso   ? 		N 		-0.425128
N 1.0  		0.7736409069048134 		0.20486526218086346  0.12314285714285714 		Uiso   ? 		N 		-0.425128
N 1.0  		0.7736409069048134 		0.20486526218086346  0.6231428571428571 		Uiso   ? 		N 		-0.425128
N 1.0  		0.37356669342222143 		0.404807699207658  0.12314285714285714 		Uiso   ? 		N 		-0.425256
N 1.0  		0.37356669342222143 		0.404807699207658  0.6231428571428571 		Uiso   ? 		N 		-0.425256
N 1.0  		0.8736121254182105 		0.404807699207658  0.12314285714285714 		Uiso   ? 		N 		-0.425256
N 1.0  		0.8736121254182105 		0.404807699207658  0.6231428571428571 		Uiso   ? 		N 		-0.425256
N 1.0  		0.4735379119356186 		0.6049394756634553  0.12314285714285714 		Uiso   ? 		N 		-0.430947
N 1.0  		0.4735379119356186 		0.6049394756634553  0.6231428571428571 		Uiso   ? 		N 		-0.430947
N 1.0  		0.973583343931608 		0.6049394756634553  0.12314285714285714 		Uiso   ? 		N 		-0.430947
N 1.0  		0.973583343931608 		0.6049394756634553  0.6231428571428571 		Uiso   ? 		N 		-0.430947
N 1.0  		0.0736530378820294 		0.80488191269025  0.12314285714285714 		Uiso   ? 		N 		-0.427499
N 1.0  		0.0736530378820294 		0.80488191269025  0.6231428571428571 		Uiso   ? 		N 		-0.427499
N 1.0  		0.5736984698780186 		0.80488191269025  0.12314285714285714 		Uiso   ? 		N 		-0.427499
N 1.0  		0.5736984698780186 		0.80488191269025  0.6231428571428571 		Uiso   ? 		N 		-0.427499
N 1.0  		0.4235523026789201 		0.004733485725066161  0.12314285714285714 		Uiso   ? 		N 		-0.425951
N 1.0  		0.4235523026789201 		0.004733485725066161  0.6231428571428571 		Uiso   ? 		N 		-0.425951
N 1.0  		0.9235977346749092 		0.004733485725066161  0.12314285714285714 		Uiso   ? 		N 		-0.425951
N 1.0  		0.9235977346749092 		0.004733485725066161  0.6231428571428571 		Uiso   ? 		N 		-0.425951
N 1.0  		0.023478089196328142 		0.20486526218086346  0.12314285714285714 		Uiso   ? 		N 		-0.428661
N 1.0  		0.023478089196328142 		0.20486526218086346  0.6231428571428571 		Uiso   ? 		N 		-0.428661
N 1.0  		0.5235235211923174 		0.20486526218086346  0.12314285714285714 		Uiso   ? 		N 		-0.428661
N 1.0  		0.5235235211923174 		0.20486526218086346  0.6231428571428571 		Uiso   ? 		N 		-0.428661
N 1.0  		0.12363864713872809 		0.404807699207658  0.12314285714285714 		Uiso   ? 		N 		-0.430923
N 1.0  		0.12363864713872809 		0.404807699207658  0.6231428571428571 		Uiso   ? 		N 		-0.430923
N 1.0  		0.6236840791347174 		0.404807699207658  0.12314285714285714 		Uiso   ? 		N 		-0.430923
N 1.0  		0.6236840791347174 		0.404807699207658  0.6231428571428571 		Uiso   ? 		N 		-0.430923
N 1.0  		0.2236098656521254 		0.6047501362344526  0.12314285714285714 		Uiso   ? 		N 		-0.426741
N 1.0  		0.2236098656521254 		0.6047501362344526  0.6231428571428571 		Uiso   ? 		N 		-0.426741
N 1.0  		0.7236552976481146 		0.6047501362344526  0.12314285714285714 		Uiso   ? 		N 		-0.426741
N 1.0  		0.7236552976481146 		0.6047501362344526  0.6231428571428571 		Uiso   ? 		N 		-0.426741
N 1.0  		0.32358108416552267 		0.80488191269025  0.12314285714285714 		Uiso   ? 		N 		-0.431846
N 1.0  		0.32358108416552267 		0.80488191269025  0.6231428571428571 		Uiso   ? 		N 		-0.431846
N 1.0  		0.8236265161615118 		0.80488191269025  0.12314285714285714 		Uiso   ? 		N 		-0.431846
N 1.0  		0.8236265161615118 		0.80488191269025  0.6231428571428571 		Uiso   ? 		N 		-0.431846
N 1.0  		0.48754902968181457 		0.18119783355553262  0.12314285714285714 		Uiso   ? 		N 		-0.371532
N 1.0  		0.48754902968181457 		0.18119783355553262  0.6231428571428571 		Uiso   ? 		N 		-0.371532
N 1.0  		0.9875944616778037 		0.18119783355553262  0.12314285714285714 		Uiso   ? 		N 		-0.371532
N 1.0  		0.9875944616778037 		0.18119783355553262  0.6231428571428571 		Uiso   ? 		N 		-0.371532
N 1.0  		0.08747481619922262 		0.38132961001132987  0.12314285714285714 		Uiso   ? 		N 		-0.375919
N 1.0  		0.08747481619922262 		0.38132961001132987  0.6231428571428571 		Uiso   ? 		N 		-0.375919
N 1.0  		0.5875202481952119 		0.38132961001132987  0.12314285714285714 		Uiso   ? 		N 		-0.375919
N 1.0  		0.5875202481952119 		0.38132961001132987  0.6231428571428571 		Uiso   ? 		N 		-0.375919
N 1.0  		0.18744603471261992 		0.5812720470381245  0.12314285714285714 		Uiso   ? 		N 		-0.371677
N 1.0  		0.18744603471261992 		0.5812720470381245  0.6231428571428571 		Uiso   ? 		N 		-0.371677
N 1.0  		0.6874914667086092 		0.5812720470381245  0.12314285714285714 		Uiso   ? 		N 		-0.371677
N 1.0  		0.6874914667086092 		0.5812720470381245  0.6231428571428571 		Uiso   ? 		N 		-0.371677
N 1.0  		0.28760659265501987 		0.7814038234939218  0.12314285714285714 		Uiso   ? 		N 		-0.372386
N 1.0  		0.28760659265501987 		0.7814038234939218  0.6231428571428571 		Uiso   ? 		N 		-0.372386
N 1.0  		0.7876520246510091 		0.7814038234939218  0.12314285714285714 		Uiso   ? 		N 		-0.372386
N 1.0  		0.7876520246510091 		0.7814038234939218  0.6231428571428571 		Uiso   ? 		N 		-0.372386
N 1.0  		0.3875778111684172 		0.9813462605207164  0.12314285714285714 		Uiso   ? 		N 		-0.373329
N 1.0  		0.3875778111684172 		0.9813462605207164  0.6231428571428571 		Uiso   ? 		N 		-0.373329
N 1.0  		0.8876232431644062 		0.9813462605207164  0.12314285714285714 		Uiso   ? 		N 		-0.373329
N 1.0  		0.8876232431644062 		0.9813462605207164  0.6231428571428571 		Uiso   ? 		N 		-0.373329
N 1.0  		0.4510065198843038 		0.15809842321720977  0.12314285714285714 		Uiso   ? 		N 		-0.349534
N 1.0  		0.4510065198843038 		0.15809842321720977  0.6231428571428571 		Uiso   ? 		N 		-0.349534
N 1.0  		0.9510519518802929 		0.15809842321720977  0.12314285714285714 		Uiso   ? 		N 		-0.349534
N 1.0  		0.9510519518802929 		0.15809842321720977  0.6231428571428571 		Uiso   ? 		N 		-0.349534
N 1.0  		0.05093230640171187 		0.3580408602440044  0.12314285714285714 		Uiso   ? 		N 		-0.353594
N 1.0  		0.05093230640171187 		0.3580408602440044  0.6231428571428571 		Uiso   ? 		N 		-0.353594
N 1.0  		0.5509777383977011 		0.3580408602440044  0.12314285714285714 		Uiso   ? 		N 		-0.353594
N 1.0  		0.5509777383977011 		0.3580408602440044  0.6231428571428571 		Uiso   ? 		N 		-0.353594
N 1.0  		0.15109286434411182 		0.557983297270799  0.12314285714285714 		Uiso   ? 		N 		-0.352289
N 1.0  		0.15109286434411182 		0.557983297270799  0.6231428571428571 		Uiso   ? 		N 		-0.352289
N 1.0  		0.651138296340101 		0.557983297270799  0.12314285714285714 		Uiso   ? 		N 		-0.352289
N 1.0  		0.651138296340101 		0.557983297270799  0.6231428571428571 		Uiso   ? 		N 		-0.352289
N 1.0  		0.2510640828575091 		0.7581150737265961  0.12314285714285714 		Uiso   ? 		N 		-0.347340
N 1.0  		0.2510640828575091 		0.7581150737265961  0.6231428571428571 		Uiso   ? 		N 		-0.347340
N 1.0  		0.7511095148534984 		0.7581150737265961  0.12314285714285714 		Uiso   ? 		N 		-0.347340
N 1.0  		0.7511095148534984 		0.7581150737265961  0.6231428571428571 		Uiso   ? 		N 		-0.347340
N 1.0  		0.35103530137090644 		0.9580575107533909  0.12314285714285714 		Uiso   ? 		N 		-0.345014
N 1.0  		0.35103530137090644 		0.9580575107533909  0.6231428571428571 		Uiso   ? 		N 		-0.345014
N 1.0  		0.8510807333668956 		0.9580575107533909  0.12314285714285714 		Uiso   ? 		N 		-0.345014
N 1.0  		0.8510807333668956 		0.9580575107533909  0.6231428571428571 		Uiso   ? 		N 		-0.345014
N 1.0  		0.2078946930449058 		0.029726290353415487  0.12314285714285714 		Uiso   ? 		N 		-0.351102
N 1.0  		0.2078946930449058 		0.029726290353415487  0.6231428571428571 		Uiso   ? 		N 		-0.351102
N 1.0  		0.707940125040895 		0.029726290353415487  0.12314285714285714 		Uiso   ? 		N 		-0.351102
N 1.0  		0.707940125040895 		0.029726290353415487  0.6231428571428571 		Uiso   ? 		N 		-0.351102
N 1.0  		0.30786591155830306 		0.22966872738021013  0.12314285714285714 		Uiso   ? 		N 		-0.351802
N 1.0  		0.30786591155830306 		0.22966872738021013  0.6231428571428571 		Uiso   ? 		N 		-0.351802
N 1.0  		0.8079113435542924 		0.22966872738021013  0.12314285714285714 		Uiso   ? 		N 		-0.351802
N 1.0  		0.8079113435542924 		0.22966872738021013  0.6231428571428571 		Uiso   ? 		N 		-0.351802
N 1.0  		0.40783713007170036 		0.4298005038360074  0.12314285714285714 		Uiso   ? 		N 		-0.347994
N 1.0  		0.40783713007170036 		0.4298005038360074  0.6231428571428571 		Uiso   ? 		N 		-0.347994
N 1.0  		0.9078825620676896 		0.4298005038360074  0.12314285714285714 		Uiso   ? 		N 		-0.347994
N 1.0  		0.9078825620676896 		0.4298005038360074  0.6231428571428571 		Uiso   ? 		N 		-0.347994
N 1.0  		0.007762916589108465 		0.629742940862802  0.12314285714285714 		Uiso   ? 		N 		-0.351476
N 1.0  		0.007762916589108465 		0.629742940862802  0.6231428571428571 		Uiso   ? 		N 		-0.351476
N 1.0  		0.5078083485850977 		0.629742940862802  0.12314285714285714 		Uiso   ? 		N 		-0.351476
N 1.0  		0.5078083485850977 		0.629742940862802  0.6231428571428571 		Uiso   ? 		N 		-0.351476
N 1.0  		0.1079234745315084 		0.8296853778895965  0.12314285714285714 		Uiso   ? 		N 		-0.352895
N 1.0  		0.1079234745315084 		0.8296853778895965  0.6231428571428571 		Uiso   ? 		N 		-0.352895
N 1.0  		0.6079689065274977 		0.8296853778895965  0.12314285714285714 		Uiso   ? 		N 		-0.352895
N 1.0  		0.6079689065274977 		0.8296853778895965  0.6231428571428571 		Uiso   ? 		N 		-0.352895
N 1.0  		0.0367318492265134 		0.0664581395799289  0.12314285714285714 		Uiso   ? 		N 		-0.415941
N 1.0  		0.0367318492265134 		0.0664581395799289  0.6231428571428571 		Uiso   ? 		N 		-0.415941
N 1.0  		0.5367772812225026 		0.0664581395799289  0.12314285714285714 		Uiso   ? 		N 		-0.415941
N 1.0  		0.5367772812225026 		0.0664581395799289  0.6231428571428571 		Uiso   ? 		N 		-0.415941
N 1.0  		0.13670306773991067 		0.2665899160357261  0.12314285714285714 		Uiso   ? 		N 		-0.418888
N 1.0  		0.13670306773991067 		0.2665899160357261  0.6231428571428571 		Uiso   ? 		N 		-0.418888
N 1.0  		0.6367484997358999 		0.2665899160357261  0.12314285714285714 		Uiso   ? 		N 		-0.418888
N 1.0  		0.6367484997358999 		0.2665899160357261  0.6231428571428571 		Uiso   ? 		N 		-0.418888
N 1.0  		0.236674286253308 		0.4665323530625208  0.12314285714285714 		Uiso   ? 		N 		-0.422459
N 1.0  		0.236674286253308 		0.4665323530625208  0.6231428571428571 		Uiso   ? 		N 		-0.422459
N 1.0  		0.7367197182492973 		0.4665323530625208  0.12314285714285714 		Uiso   ? 		N 		-0.422459
N 1.0  		0.7367197182492973 		0.4665323530625208  0.6231428571428571 		Uiso   ? 		N 		-0.422459
N 1.0  		0.3366455047667053 		0.6664747900893154  0.12314285714285714 		Uiso   ? 		N 		-0.419361
N 1.0  		0.3366455047667053 		0.6664747900893154  0.6231428571428571 		Uiso   ? 		N 		-0.419361
N 1.0  		0.8366909367626945 		0.6664747900893154  0.12314285714285714 		Uiso   ? 		N 		-0.419361
N 1.0  		0.8366909367626945 		0.6664747900893154  0.6231428571428571 		Uiso   ? 		N 		-0.419361
N 1.0  		0.4366167232801026 		0.8664172271161099  0.12314285714285714 		Uiso   ? 		N 		-0.422131
N 1.0  		0.4366167232801026 		0.8664172271161099  0.6231428571428571 		Uiso   ? 		N 		-0.422131
N 1.0  		0.9366621552760919 		0.8664172271161099  0.12314285714285714 		Uiso   ? 		N 		-0.422131
N 1.0  		0.9366621552760919 		0.8664172271161099  0.6231428571428571 		Uiso   ? 		N 		-0.422131
N 1.0  		0.41370665237078247 		0.049606930398693364  0.12314285714285714 		Uiso   ? 		N 		-0.486300
N 1.0  		0.41370665237078247 		0.049606930398693364  0.6231428571428571 		Uiso   ? 		N 		-0.486300
N 1.0  		0.9137520843667716 		0.049606930398693364  0.12314285714285714 		Uiso   ? 		N 		-0.486300
N 1.0  		0.9137520843667716 		0.049606930398693364  0.6231428571428571 		Uiso   ? 		N 		-0.486300
N 1.0  		0.013821778317193173 		0.24973870685449062  0.12314285714285714 		Uiso   ? 		N 		-0.486511
N 1.0  		0.013821778317193173 		0.24973870685449062  0.6231428571428571 		Uiso   ? 		N 		-0.486511
N 1.0  		0.5138672103131824 		0.24973870685449062  0.12314285714285714 		Uiso   ? 		N 		-0.486511
N 1.0  		0.5138672103131824 		0.24973870685449062  0.6231428571428571 		Uiso   ? 		N 		-0.486511
N 1.0  		0.11379299683059046 		0.4496811438812853  0.12314285714285714 		Uiso   ? 		N 		-0.491354
N 1.0  		0.11379299683059046 		0.4496811438812853  0.6231428571428571 		Uiso   ? 		N 		-0.491354
N 1.0  		0.6138384288265797 		0.4496811438812853  0.12314285714285714 		Uiso   ? 		N 		-0.491354
N 1.0  		0.6138384288265797 		0.4496811438812853  0.6231428571428571 		Uiso   ? 		N 		-0.491354
N 1.0  		0.2137642153439878 		0.6496235809080799  0.12314285714285714 		Uiso   ? 		N 		-0.485119
N 1.0  		0.2137642153439878 		0.6496235809080799  0.6231428571428571 		Uiso   ? 		N 		-0.485119
N 1.0  		0.713809647339977 		0.6496235809080799  0.12314285714285714 		Uiso   ? 		N 		-0.485119
N 1.0  		0.713809647339977 		0.6496235809080799  0.6231428571428571 		Uiso   ? 		N 		-0.485119
N 1.0  		0.31373543385738506 		0.8495660179348745  0.12314285714285714 		Uiso   ? 		N 		-0.488837
N 1.0  		0.31373543385738506 		0.8495660179348745  0.6231428571428571 		Uiso   ? 		N 		-0.488837
N 1.0  		0.8137808658533743 		0.8495660179348745  0.12314285714285714 		Uiso   ? 		N 		-0.488837
N 1.0  		0.8137808658533743 		0.8495660179348745  0.6231428571428571 		Uiso   ? 		N 		-0.488837
N 1.0  		0.3697799048421685 		0.06910889158596595  0.12314285714285714 		Uiso   ? 		N 		-0.532738
N 1.0  		0.3697799048421685 		0.06910889158596595  0.6231428571428571 		Uiso   ? 		N 		-0.532738
N 1.0  		0.8698253368381578 		0.06910889158596595  0.12314285714285714 		Uiso   ? 		N 		-0.532738
N 1.0  		0.8698253368381578 		0.06910889158596595  0.6231428571428571 		Uiso   ? 		N 		-0.532738
N 1.0  		0.46975112335556574 		0.2690513286127606  0.12314285714285714 		Uiso   ? 		N 		-0.533053
N 1.0  		0.46975112335556574 		0.2690513286127606  0.6231428571428571 		Uiso   ? 		N 		-0.533053
N 1.0  		0.969796555351555 		0.2690513286127606  0.12314285714285714 		Uiso   ? 		N 		-0.533053
N 1.0  		0.969796555351555 		0.2690513286127606  0.6231428571428571 		Uiso   ? 		N 		-0.533053
N 1.0  		0.0698662493019765 		0.46899376563955514  0.12314285714285714 		Uiso   ? 		N 		-0.533589
N 1.0  		0.0698662493019765 		0.46899376563955514  0.6231428571428571 		Uiso   ? 		N 		-0.533589
N 1.0  		0.5699116812979657 		0.46899376563955514  0.12314285714285714 		Uiso   ? 		N 		-0.533589
N 1.0  		0.5699116812979657 		0.46899376563955514  0.6231428571428571 		Uiso   ? 		N 		-0.533589
N 1.0  		0.16983746781537382 		0.6691255420953525  0.12314285714285714 		Uiso   ? 		N 		-0.534194
N 1.0  		0.16983746781537382 		0.6691255420953525  0.6231428571428571 		Uiso   ? 		N 		-0.534194
N 1.0  		0.669882899811363 		0.6691255420953525  0.12314285714285714 		Uiso   ? 		N 		-0.534194
N 1.0  		0.669882899811363 		0.6691255420953525  0.6231428571428571 		Uiso   ? 		N 		-0.534194
N 1.0  		0.2698086863287711 		0.8690679791221471  0.12314285714285714 		Uiso   ? 		N 		-0.537173
N 1.0  		0.2698086863287711 		0.8690679791221471  0.6231428571428571 		Uiso   ? 		N 		-0.537173
N 1.0  		0.7698541183247604 		0.8690679791221471  0.12314285714285714 		Uiso   ? 		N 		-0.537173
N 1.0  		0.7698541183247604 		0.8690679791221471  0.6231428571428571 		Uiso   ? 		N 		-0.537173
N 1.0  		0.2866598955100067 		0.0664581395799289  0.12314285714285714 		Uiso   ? 		N 		-0.419117
N 1.0  		0.2866598955100067 		0.0664581395799289  0.6231428571428571 		Uiso   ? 		N 		-0.419117
N 1.0  		0.786705327505996 		0.0664581395799289  0.12314285714285714 		Uiso   ? 		N 		-0.419117
N 1.0  		0.786705327505996 		0.0664581395799289  0.6231428571428571 		Uiso   ? 		N 		-0.419117
N 1.0  		0.3868204534524067 		0.2665899160357261  0.12314285714285714 		Uiso   ? 		N 		-0.419465
N 1.0  		0.3868204534524067 		0.2665899160357261  0.6231428571428571 		Uiso   ? 		N 		-0.419465
N 1.0  		0.8868658854483958 		0.2665899160357261  0.12314285714285714 		Uiso   ? 		N 		-0.419465
N 1.0  		0.8868658854483958 		0.2665899160357261  0.6231428571428571 		Uiso   ? 		N 		-0.419465
N 1.0  		0.4867916719658039 		0.4665323530625208  0.12314285714285714 		Uiso   ? 		N 		-0.416693
N 1.0  		0.4867916719658039 		0.4665323530625208  0.6231428571428571 		Uiso   ? 		N 		-0.416693
N 1.0  		0.9868371039617931 		0.4665323530625208  0.12314285714285714 		Uiso   ? 		N 		-0.416693
N 1.0  		0.9868371039617931 		0.4665323530625208  0.6231428571428571 		Uiso   ? 		N 		-0.416693
N 1.0  		0.08671745848321202 		0.6664747900893154  0.12314285714285714 		Uiso   ? 		N 		-0.420448
N 1.0  		0.08671745848321202 		0.6664747900893154  0.6231428571428571 		Uiso   ? 		N 		-0.420448
N 1.0  		0.5867628904792013 		0.6664747900893154  0.12314285714285714 		Uiso   ? 		N 		-0.420448
N 1.0  		0.5867628904792013 		0.6664747900893154  0.6231428571428571 		Uiso   ? 		N 		-0.420448
N 1.0  		0.18668867699660932 		0.8666065665451127  0.12314285714285714 		Uiso   ? 		N 		-0.422666
N 1.0  		0.18668867699660932 		0.8666065665451127  0.6231428571428571 		Uiso   ? 		N 		-0.422666
N 1.0  		0.6867341089925986 		0.8666065665451127  0.12314285714285714 		Uiso   ? 		N 		-0.422666
N 1.0  		0.6867341089925986 		0.8666065665451127  0.6231428571428571 		Uiso   ? 		N 		-0.422666
N 1.0  		0.23762098339832124 		0.18138717298453527  0.12314285714285714 		Uiso   ? 		N 		-0.373496
N 1.0  		0.23762098339832124 		0.18138717298453527  0.6231428571428571 		Uiso   ? 		N 		-0.373496
N 1.0  		0.7376664153943104 		0.18138717298453527  0.12314285714285714 		Uiso   ? 		N 		-0.373496
N 1.0  		0.7376664153943104 		0.18138717298453527  0.6231428571428571 		Uiso   ? 		N 		-0.373496
N 1.0  		0.33759220191171857 		0.38132961001132987  0.12314285714285714 		Uiso   ? 		N 		-0.373306
N 1.0  		0.33759220191171857 		0.38132961001132987  0.6231428571428571 		Uiso   ? 		N 		-0.373306
N 1.0  		0.8376376339077078 		0.38132961001132987  0.12314285714285714 		Uiso   ? 		N 		-0.373306
N 1.0  		0.8376376339077078 		0.38132961001132987  0.6231428571428571 		Uiso   ? 		N 		-0.373306
N 1.0  		0.4375634204251158 		0.5814613864671272  0.12314285714285714 		Uiso   ? 		N 		-0.375233
N 1.0  		0.4375634204251158 		0.5814613864671272  0.6231428571428571 		Uiso   ? 		N 		-0.375233
N 1.0  		0.937608852421105 		0.5814613864671272  0.12314285714285714 		Uiso   ? 		N 		-0.375233
N 1.0  		0.937608852421105 		0.5814613864671272  0.6231428571428571 		Uiso   ? 		N 		-0.375233
N 1.0  		0.037678546371526594 		0.7814038234939218  0.12314285714285714 		Uiso   ? 		N 		-0.371939
N 1.0  		0.037678546371526594 		0.7814038234939218  0.6231428571428571 		Uiso   ? 		N 		-0.371939
N 1.0  		0.5377239783675158 		0.7814038234939218  0.12314285714285714 		Uiso   ? 		N 		-0.371939
N 1.0  		0.5377239783675158 		0.7814038234939218  0.6231428571428571 		Uiso   ? 		N 		-0.371939
N 1.0  		0.1376497648849239 		0.9813462605207164  0.12314285714285714 		Uiso   ? 		N 		-0.372482
N 1.0  		0.1376497648849239 		0.9813462605207164  0.6231428571428571 		Uiso   ? 		N 		-0.372482
N 1.0  		0.637695196880913 		0.9813462605207164  0.12314285714285714 		Uiso   ? 		N 		-0.372482
N 1.0  		0.637695196880913 		0.9813462605207164  0.6231428571428571 		Uiso   ? 		N 		-0.372482
N 1.0  		0.16377860608728914 		0.049606930398693364  0.12314285714285714 		Uiso   ? 		N 		-0.487176
N 1.0  		0.16377860608728914 		0.049606930398693364  0.6231428571428571 		Uiso   ? 		N 		-0.487176
N 1.0  		0.6638240380832783 		0.049606930398693364  0.12314285714285714 		Uiso   ? 		N 		-0.487176
N 1.0  		0.6638240380832783 		0.049606930398693364  0.6231428571428571 		Uiso   ? 		N 		-0.487176
N 1.0  		0.2639391640296891 		0.24973870685449062  0.12314285714285714 		Uiso   ? 		N 		-0.484306
N 1.0  		0.2639391640296891 		0.24973870685449062  0.6231428571428571 		Uiso   ? 		N 		-0.484306
N 1.0  		0.7639845960256784 		0.24973870685449062  0.12314285714285714 		Uiso   ? 		N 		-0.484306
N 1.0  		0.7639845960256784 		0.24973870685449062  0.6231428571428571 		Uiso   ? 		N 		-0.484306
N 1.0  		0.3639103825430864 		0.4496811438812853  0.12314285714285714 		Uiso   ? 		N 		-0.485979
N 1.0  		0.3639103825430864 		0.4496811438812853  0.6231428571428571 		Uiso   ? 		N 		-0.485979
N 1.0  		0.8639558145390756 		0.4496811438812853  0.12314285714285714 		Uiso   ? 		N 		-0.485979
N 1.0  		0.8639558145390756 		0.4496811438812853  0.6231428571428571 		Uiso   ? 		N 		-0.485979
N 1.0  		0.46388160105648374 		0.6496235809080799  0.12314285714285714 		Uiso   ? 		N 		-0.488339
N 1.0  		0.46388160105648374 		0.6496235809080799  0.6231428571428571 		Uiso   ? 		N 		-0.488339
N 1.0  		0.963927033052473 		0.6496235809080799  0.12314285714285714 		Uiso   ? 		N 		-0.488339
N 1.0  		0.963927033052473 		0.6496235809080799  0.6231428571428571 		Uiso   ? 		N 		-0.488339
N 1.0  		0.06380738757389179 		0.8497553573638772  0.12314285714285714 		Uiso   ? 		N 		-0.489006
N 1.0  		0.06380738757389179 		0.8497553573638772  0.6231428571428571 		Uiso   ? 		N 		-0.489006
N 1.0  		0.5638528195698811 		0.8497553573638772  0.12314285714285714 		Uiso   ? 		N 		-0.489006
N 1.0  		0.5638528195698811 		0.8497553573638772  0.6231428571428571 		Uiso   ? 		N 		-0.489006
N 1.0  		0.12818279343479164 		0.024803465199346682  0.12314285714285714 		Uiso   ? 		N 		-0.280676
N 1.0  		0.12818279343479164 		0.024803465199346682  0.6231428571428571 		Uiso   ? 		N 		-0.280676
N 1.0  		0.6282282254307808 		0.024803465199346682  0.12314285714285714 		Uiso   ? 		N 		-0.280676
N 1.0  		0.6282282254307808 		0.024803465199346682  0.6231428571428571 		Uiso   ? 		N 		-0.280676
N 1.0  		0.4544146296063514 		0.07270634073701623  0.12314285714285714 		Uiso   ? 		N 		-0.373718
N 1.0  		0.4544146296063514 		0.07270634073701623  0.6231428571428571 		Uiso   ? 		N 		-0.373718
N 1.0  		0.9544600616023406 		0.07270634073701623  0.12314285714285714 		Uiso   ? 		N 		-0.373718
N 1.0  		0.9544600616023406 		0.07270634073701623  0.6231428571428571 		Uiso   ? 		N 		-0.373718
N 1.0  		0.22815401194818896 		0.22474590222614133  0.12314285714285714 		Uiso   ? 		N 		-0.276137
N 1.0  		0.22815401194818896 		0.22474590222614133  0.6231428571428571 		Uiso   ? 		N 		-0.276137
N 1.0  		0.7281994439441781 		0.22474590222614133  0.12314285714285714 		Uiso   ? 		N 		-0.276137
N 1.0  		0.7281994439441781 		0.22474590222614133  0.6231428571428571 		Uiso   ? 		N 		-0.276137
N 1.0  		0.054529755552762155 		0.2728381171928135  0.12314285714285714 		Uiso   ? 		N 		-0.374482
N 1.0  		0.054529755552762155 		0.2728381171928135  0.6231428571428571 		Uiso   ? 		N 		-0.374482
N 1.0  		0.5545751875487513 		0.2728381171928135  0.12314285714285714 		Uiso   ? 		N 		-0.374482
N 1.0  		0.5545751875487513 		0.2728381171928135  0.6231428571428571 		Uiso   ? 		N 		-0.374482
N 1.0  		0.32812523046158626 		0.4248776786819386  0.12314285714285714 		Uiso   ? 		N 		-0.277893
N 1.0  		0.32812523046158626 		0.4248776786819386  0.6231428571428571 		Uiso   ? 		N 		-0.277893
N 1.0  		0.8281706624575754 		0.4248776786819386  0.12314285714285714 		Uiso   ? 		N 		-0.277893
N 1.0  		0.8281706624575754 		0.4248776786819386  0.6231428571428571 		Uiso   ? 		N 		-0.277893
N 1.0  		0.15450097406615945 		0.4727805542196081  0.12314285714285714 		Uiso   ? 		N 		-0.372482
N 1.0  		0.15450097406615945 		0.4727805542196081  0.6231428571428571 		Uiso   ? 		N 		-0.372482
N 1.0  		0.6545464060621486 		0.4727805542196081  0.12314285714285714 		Uiso   ? 		N 		-0.372482
N 1.0  		0.6545464060621486 		0.4727805542196081  0.6231428571428571 		Uiso   ? 		N 		-0.372482
N 1.0  		0.4280964489749835 		0.6248201157087332  0.12314285714285714 		Uiso   ? 		N 		-0.280818
N 1.0  		0.4280964489749835 		0.6248201157087332  0.6231428571428571 		Uiso   ? 		N 		-0.280818
N 1.0  		0.9281418809709728 		0.6248201157087332  0.12314285714285714 		Uiso   ? 		N 		-0.280818
N 1.0  		0.9281418809709728 		0.6248201157087332  0.6231428571428571 		Uiso   ? 		N 		-0.280818
N 1.0  		0.2544721925795568 		0.6727229912464028  0.12314285714285714 		Uiso   ? 		N 		-0.372524
N 1.0  		0.2544721925795568 		0.6727229912464028  0.6231428571428571 		Uiso   ? 		N 		-0.372524
N 1.0  		0.7545176245755459 		0.6727229912464028  0.12314285714285714 		Uiso   ? 		N 		-0.372524
N 1.0  		0.7545176245755459 		0.6727229912464028  0.6231428571428571 		Uiso   ? 		N 		-0.372524
N 1.0  		0.028211574921394263 		0.8247625527355278  0.12314285714285714 		Uiso   ? 		N 		-0.282041
N 1.0  		0.028211574921394263 		0.8247625527355278  0.6231428571428571 		Uiso   ? 		N 		-0.282041
N 1.0  		0.5282570069173835 		0.8247625527355278  0.12314285714285714 		Uiso   ? 		N 		-0.282041
N 1.0  		0.5282570069173835 		0.8247625527355278  0.6231428571428571 		Uiso   ? 		N 		-0.282041
N 1.0  		0.3544434110929541 		0.8728547677022  0.12314285714285714 		Uiso   ? 		N 		-0.376708
N 1.0  		0.3544434110929541 		0.8728547677022  0.6231428571428571 		Uiso   ? 		N 		-0.376708
N 1.0  		0.8544888430889432 		0.8728547677022  0.12314285714285714 		Uiso   ? 		N 		-0.376708
N 1.0  		0.8544888430889432 		0.8728547677022  0.6231428571428571 		Uiso   ? 		N 		-0.376708
N 1.0  		0.3410003116337662 		0.00037867885800529287  0.12314285714285714 		Uiso   ? 		N 		-0.457124
N 1.0  		0.3410003116337662 		0.00037867885800529287  0.6231428571428571 		Uiso   ? 		N 		-0.457124
N 1.0  		0.8410457436297555 		0.00037867885800529287  0.12314285714285714 		Uiso   ? 		N 		-0.457124
N 1.0  		0.8410457436297555 		0.00037867885800529287  0.6231428571428571 		Uiso   ? 		N 		-0.457124
N 1.0  		0.44097153014716356 		0.20032111588479992  0.12314285714285714 		Uiso   ? 		N 		-0.455945
N 1.0  		0.44097153014716356 		0.20032111588479992  0.6231428571428571 		Uiso   ? 		N 		-0.455945
N 1.0  		0.9410169621431527 		0.20032111588479992  0.12314285714285714 		Uiso   ? 		N 		-0.455945
N 1.0  		0.9410169621431527 		0.20032111588479992  0.6231428571428571 		Uiso   ? 		N 		-0.455945
N 1.0  		0.041086656093574245 		0.4002635529115945  0.12314285714285714 		Uiso   ? 		N 		-0.458614
N 1.0  		0.041086656093574245 		0.4002635529115945  0.6231428571428571 		Uiso   ? 		N 		-0.458614
N 1.0  		0.5411320880895635 		0.4002635529115945  0.12314285714285714 		Uiso   ? 		N 		-0.458614
N 1.0  		0.5411320880895635 		0.4002635529115945  0.6231428571428571 		Uiso   ? 		N 		-0.458614
N 1.0  		0.14105787460697156 		0.6003953293673918  0.12314285714285714 		Uiso   ? 		N 		-0.454588
N 1.0  		0.14105787460697156 		0.6003953293673918  0.6231428571428571 		Uiso   ? 		N 		-0.454588
N 1.0  		0.6411033066029608 		0.6003953293673918  0.12314285714285714 		Uiso   ? 		N 		-0.454588
N 1.0  		0.6411033066029608 		0.6003953293673918  0.6231428571428571 		Uiso   ? 		N 		-0.454588
N 1.0  		0.24102909312036883 		0.8003377663941865  0.12314285714285714 		Uiso   ? 		N 		-0.457523
N 1.0  		0.24102909312036883 		0.8003377663941865  0.6231428571428571 		Uiso   ? 		N 		-0.457523
N 1.0  		0.7410745251163581 		0.8003377663941865  0.12314285714285714 		Uiso   ? 		N 		-0.457523
N 1.0  		0.7410745251163581 		0.8003377663941865  0.6231428571428571 		Uiso   ? 		N 		-0.457523
N 1.0  		0.33304805561565504 		0.04335872924160603  0.12314285714285714 		Uiso   ? 		N 		-0.417410
N 1.0  		0.33304805561565504 		0.04335872924160603  0.6231428571428571 		Uiso   ? 		N 		-0.417410
N 1.0  		0.8330934876116444 		0.04335872924160603  0.12314285714285714 		Uiso   ? 		N 		-0.417410
N 1.0  		0.8330934876116444 		0.04335872924160603  0.6231428571428571 		Uiso   ? 		N 		-0.417410
N 1.0  		0.24481588170042182 		0.09145094420827822  0.12314285714285714 		Uiso   ? 		N 		-0.277396
N 1.0  		0.24481588170042182 		0.09145094420827822  0.6231428571428571 		Uiso   ? 		N 		-0.277396
N 1.0  		0.7448613136964111 		0.09145094420827822  0.12314285714285714 		Uiso   ? 		N 		-0.277396
N 1.0  		0.7448613136964111 		0.09145094420827822  0.6231428571428571 		Uiso   ? 		N 		-0.277396
N 1.0  		0.43301927412905233 		0.24330116626840065  0.12314285714285714 		Uiso   ? 		N 		-0.417507
N 1.0  		0.43301927412905233 		0.24330116626840065  0.6231428571428571 		Uiso   ? 		N 		-0.417507
N 1.0  		0.9330647061250416 		0.24330116626840065  0.12314285714285714 		Uiso   ? 		N 		-0.417507
N 1.0  		0.9330647061250416 		0.24330116626840065  0.6231428571428571 		Uiso   ? 		N 		-0.417507
N 1.0  		0.3449764396428218 		0.29139338123507286  0.12314285714285714 		Uiso   ? 		N 		-0.276679
N 1.0  		0.3449764396428218 		0.29139338123507286  0.6231428571428571 		Uiso   ? 		N 		-0.276679
N 1.0  		0.845021871638811 		0.29139338123507286  0.12314285714285714 		Uiso   ? 		N 		-0.276679
N 1.0  		0.845021871638811 		0.29139338123507286  0.6231428571428571 		Uiso   ? 		N 		-0.276679
N 1.0  		0.033134400075463095 		0.4432436032951953  0.12314285714285714 		Uiso   ? 		N 		-0.421679
N 1.0  		0.033134400075463095 		0.4432436032951953  0.6231428571428571 		Uiso   ? 		N 		-0.421679
N 1.0  		0.5331798320714523 		0.4432436032951953  0.12314285714285714 		Uiso   ? 		N 		-0.421679
N 1.0  		0.5331798320714523 		0.4432436032951953  0.6231428571428571 		Uiso   ? 		N 		-0.421679
N 1.0  		0.44494765815621906 		0.49152515769087013  0.12314285714285714 		Uiso   ? 		N 		-0.280795
N 1.0  		0.44494765815621906 		0.49152515769087013  0.6231428571428571 		Uiso   ? 		N 		-0.280795
N 1.0  		0.9449930901522082 		0.49152515769087013  0.12314285714285714 		Uiso   ? 		N 		-0.280795
N 1.0  		0.9449930901522082 		0.49152515769087013  0.6231428571428571 		Uiso   ? 		N 		-0.280795
N 1.0  		0.13310561858886039 		0.6433753797509926  0.12314285714285714 		Uiso   ? 		N 		-0.417876
N 1.0  		0.13310561858886039 		0.6433753797509926  0.6231428571428571 		Uiso   ? 		N 		-0.417876
N 1.0  		0.6331510505848497 		0.6433753797509926  0.12314285714285714 		Uiso   ? 		N 		-0.417876
N 1.0  		0.6331510505848497 		0.6433753797509926  0.6231428571428571 		Uiso   ? 		N 		-0.417876
N 1.0  		0.04487344467362716 		0.6914675947176647  0.12314285714285714 		Uiso   ? 		N 		-0.279439
N 1.0  		0.04487344467362716 		0.6914675947176647  0.6231428571428571 		Uiso   ? 		N 		-0.279439
N 1.0  		0.5449188766696165 		0.6914675947176647  0.12314285714285714 		Uiso   ? 		N 		-0.279439
N 1.0  		0.5449188766696165 		0.6914675947176647  0.6231428571428571 		Uiso   ? 		N 		-0.279439
N 1.0  		0.2330768371022577 		0.8433178167777872  0.12314285714285714 		Uiso   ? 		N 		-0.419877
N 1.0  		0.2330768371022577 		0.8433178167777872  0.6231428571428571 		Uiso   ? 		N 		-0.419877
N 1.0  		0.733122269098247 		0.8433178167777872  0.12314285714285714 		Uiso   ? 		N 		-0.419877
N 1.0  		0.733122269098247 		0.8433178167777872  0.6231428571428571 		Uiso   ? 		N 		-0.419877
N 1.0  		0.14484466318702446 		0.8914100317444594  0.12314285714285714 		Uiso   ? 		N 		-0.278832
N 1.0  		0.14484466318702446 		0.8914100317444594  0.6231428571428571 		Uiso   ? 		N 		-0.278832
N 1.0  		0.6448900951830138 		0.8914100317444594  0.12314285714285714 		Uiso   ? 		N 		-0.278832
N 1.0  		0.6448900951830138 		0.8914100317444594  0.6231428571428571 		Uiso   ? 		N 		-0.278832
N 1.0  		0.4949332674129177 		0.09145094420827822  0.12314285714285714 		Uiso   ? 		N 		-0.276514
N 1.0  		0.4949332674129177 		0.09145094420827822  0.6231428571428571 		Uiso   ? 		N 		-0.276514
N 1.0  		0.9949786994089069 		0.09145094420827822  0.12314285714285714 		Uiso   ? 		N 		-0.276514
N 1.0  		0.9949786994089069 		0.09145094420827822  0.6231428571428571 		Uiso   ? 		N 		-0.276514
N 1.0  		0.09485905393032584 		0.29139338123507286  0.12314285714285714 		Uiso   ? 		N 		-0.282238
N 1.0  		0.09485905393032584 		0.29139338123507286  0.6231428571428571 		Uiso   ? 		N 		-0.282238
N 1.0  		0.5949044859263151 		0.29139338123507286  0.12314285714285714 		Uiso   ? 		N 		-0.282238
N 1.0  		0.5949044859263151 		0.29139338123507286  0.6231428571428571 		Uiso   ? 		N 		-0.282238
N 1.0  		0.1948302724437231 		0.4913358182618675  0.12314285714285714 		Uiso   ? 		N 		-0.278829
N 1.0  		0.1948302724437231 		0.4913358182618675  0.6231428571428571 		Uiso   ? 		N 		-0.278829
N 1.0  		0.6948757044397124 		0.4913358182618675  0.12314285714285714 		Uiso   ? 		N 		-0.278829
N 1.0  		0.6948757044397124 		0.4913358182618675  0.6231428571428571 		Uiso   ? 		N 		-0.278829
N 1.0  		0.29480149095712044 		0.691278255288662  0.12314285714285714 		Uiso   ? 		N 		-0.274040
N 1.0  		0.29480149095712044 		0.691278255288662  0.6231428571428571 		Uiso   ? 		N 		-0.274040
N 1.0  		0.7948469229531098 		0.691278255288662  0.12314285714285714 		Uiso   ? 		N 		-0.274040
N 1.0  		0.7948469229531098 		0.691278255288662  0.6231428571428571 		Uiso   ? 		N 		-0.274040
N 1.0  		0.39477270947051774 		0.8914100317444594  0.12314285714285714 		Uiso   ? 		N 		-0.279406
N 1.0  		0.39477270947051774 		0.8914100317444594  0.6231428571428571 		Uiso   ? 		N 		-0.279406
N 1.0  		0.894818141466507 		0.8914100317444594  0.12314285714285714 		Uiso   ? 		N 		-0.279406
N 1.0  		0.894818141466507 		0.8914100317444594  0.6231428571428571 		Uiso   ? 		N 		-0.279406
N 1.0  		0.3781108397182849 		0.024803465199346682  0.12314285714285714 		Uiso   ? 		N 		-0.280408
N 1.0  		0.3781108397182849 		0.024803465199346682  0.6231428571428571 		Uiso   ? 		N 		-0.280408
N 1.0  		0.8781562717142741 		0.024803465199346682  0.12314285714285714 		Uiso   ? 		N 		-0.280408
N 1.0  		0.8781562717142741 		0.024803465199346682  0.6231428571428571 		Uiso   ? 		N 		-0.280408
N 1.0  		0.4780820582316822 		0.22474590222614133  0.12314285714285714 		Uiso   ? 		N 		-0.279818
N 1.0  		0.4780820582316822 		0.22474590222614133  0.6231428571428571 		Uiso   ? 		N 		-0.279818
N 1.0  		0.9781274902276715 		0.22474590222614133  0.12314285714285714 		Uiso   ? 		N 		-0.279818
N 1.0  		0.9781274902276715 		0.22474590222614133  0.6231428571428571 		Uiso   ? 		N 		-0.279818
N 1.0  		0.07819718417809295 		0.4246883392529359  0.12314285714285714 		Uiso   ? 		N 		-0.280882
N 1.0  		0.07819718417809295 		0.4246883392529359  0.6231428571428571 		Uiso   ? 		N 		-0.280882
N 1.0  		0.5782426161740821 		0.4246883392529359  0.12314285714285714 		Uiso   ? 		N 		-0.280882
N 1.0  		0.5782426161740821 		0.4246883392529359  0.6231428571428571 		Uiso   ? 		N 		-0.280882
N 1.0  		0.17816840269149026 		0.6248201157087332  0.12314285714285714 		Uiso   ? 		N 		-0.277673
N 1.0  		0.17816840269149026 		0.6248201157087332  0.6231428571428571 		Uiso   ? 		N 		-0.277673
N 1.0  		0.6782138346874794 		0.6248201157087332  0.12314285714285714 		Uiso   ? 		N 		-0.277673
N 1.0  		0.6782138346874794 		0.6248201157087332  0.6231428571428571 		Uiso   ? 		N 		-0.277673
N 1.0  		0.27813962120488755 		0.8247625527355278  0.12314285714285714 		Uiso   ? 		N 		-0.281534
N 1.0  		0.27813962120488755 		0.8247625527355278  0.6231428571428571 		Uiso   ? 		N 		-0.281534
N 1.0  		0.7781850532008768 		0.8247625527355278  0.12314285714285714 		Uiso   ? 		N 		-0.281534
N 1.0  		0.7781850532008768 		0.8247625527355278  0.6231428571428571 		Uiso   ? 		N 		-0.281534
N 1.0  		0.45157453817131166 		0.11568639112061696  0.12314285714285714 		Uiso   ? 		N 		-0.425776
N 1.0  		0.45157453817131166 		0.11568639112061696  0.6231428571428571 		Uiso   ? 		N 		-0.425776
N 1.0  		0.9516199701673009 		0.11568639112061696  0.12314285714285714 		Uiso   ? 		N 		-0.425776
N 1.0  		0.9516199701673009 		0.11568639112061696  0.6231428571428571 		Uiso   ? 		N 		-0.425776
N 1.0  		0.05168966411772245 		0.31581816757641423  0.12314285714285714 		Uiso   ? 		N 		-0.430354
N 1.0  		0.05168966411772245 		0.31581816757641423  0.6231428571428571 		Uiso   ? 		N 		-0.430354
N 1.0  		0.5517350961137117 		0.31581816757641423  0.12314285714285714 		Uiso   ? 		N 		-0.430354
N 1.0  		0.5517350961137117 		0.31581816757641423  0.6231428571428571 		Uiso   ? 		N 		-0.430354
N 1.0  		0.15166088263111976 		0.5157606046032089  0.12314285714285714 		Uiso   ? 		N 		-0.429710
N 1.0  		0.15166088263111976 		0.5157606046032089  0.6231428571428571 		Uiso   ? 		N 		-0.429710
N 1.0  		0.651706314627109 		0.5157606046032089  0.12314285714285714 		Uiso   ? 		N 		-0.429710
N 1.0  		0.651706314627109 		0.5157606046032089  0.6231428571428571 		Uiso   ? 		N 		-0.429710
N 1.0  		0.251632101144517 		0.7157030416300034  0.12314285714285714 		Uiso   ? 		N 		-0.431739
N 1.0  		0.251632101144517 		0.7157030416300034  0.6231428571428571 		Uiso   ? 		N 		-0.431739
N 1.0  		0.7516775331405063 		0.7157030416300034  0.12314285714285714 		Uiso   ? 		N 		-0.431739
N 1.0  		0.7516775331405063 		0.7157030416300034  0.6231428571428571 		Uiso   ? 		N 		-0.431739
N 1.0  		0.35160331965791436 		0.9158348180858007  0.12314285714285714 		Uiso   ? 		N 		-0.429141
N 1.0  		0.35160331965791436 		0.9158348180858007  0.6231428571428571 		Uiso   ? 		N 		-0.429141
N 1.0  		0.8516487516539035 		0.9158348180858007  0.12314285714285714 		Uiso   ? 		N 		-0.429141
N 1.0  		0.8516487516539035 		0.9158348180858007  0.6231428571428571 		Uiso   ? 		N 		-0.429141
N 1.0  		0.49341855198089657 		0.13480967344988426  0.12314285714285714 		Uiso   ? 		N 		-0.482044
N 1.0  		0.49341855198089657 		0.13480967344988426  0.6231428571428571 		Uiso   ? 		N 		-0.482044
N 1.0  		0.9934639839768857 		0.13480967344988426  0.12314285714285714 		Uiso   ? 		N 		-0.482044
N 1.0  		0.9934639839768857 		0.13480967344988426  0.6231428571428571 		Uiso   ? 		N 		-0.482044
N 1.0  		0.09334433849830467 		0.33475211047667885  0.12314285714285714 		Uiso   ? 		N 		-0.492457
N 1.0  		0.09334433849830467 		0.33475211047667885  0.6231428571428571 		Uiso   ? 		N 		-0.492457
N 1.0  		0.5933897704942939 		0.33475211047667885  0.12314285714285714 		Uiso   ? 		N 		-0.492457
N 1.0  		0.5933897704942939 		0.33475211047667885  0.6231428571428571 		Uiso   ? 		N 		-0.492457
N 1.0  		0.19331555701170194 		0.5348838869324761  0.12314285714285714 		Uiso   ? 		N 		-0.489430
N 1.0  		0.19331555701170194 		0.5348838869324761  0.6231428571428571 		Uiso   ? 		N 		-0.489430
N 1.0  		0.6933609890076912 		0.5348838869324761  0.12314285714285714 		Uiso   ? 		N 		-0.489430
N 1.0  		0.6933609890076912 		0.5348838869324761  0.6231428571428571 		Uiso   ? 		N 		-0.489430
N 1.0  		0.29328677552509924 		0.7348263239592707  0.12314285714285714 		Uiso   ? 		N 		-0.490484
N 1.0  		0.29328677552509924 		0.7348263239592707  0.6231428571428571 		Uiso   ? 		N 		-0.490484
N 1.0  		0.7933322075210886 		0.7348263239592707  0.12314285714285714 		Uiso   ? 		N 		-0.490484
N 1.0  		0.7933322075210886 		0.7348263239592707  0.6231428571428571 		Uiso   ? 		N 		-0.490484
N 1.0  		0.39325799403849654 		0.9347687609860654  0.12314285714285714 		Uiso   ? 		N 		-0.489784
N 1.0  		0.39325799403849654 		0.9347687609860654  0.6231428571428571 		Uiso   ? 		N 		-0.489784
N 1.0  		0.8933034260344858 		0.9347687609860654  0.12314285714285714 		Uiso   ? 		N 		-0.489784
N 1.0  		0.8933034260344858 		0.9347687609860654  0.6231428571428571 		Uiso   ? 		N 		-0.489784
N 1.0  		0.24765597313546153 		0.04714551782165896  0.12314285714285714 		Uiso   ? 		N 		-0.455859
N 1.0  		0.24765597313546153 		0.04714551782165896  0.6231428571428571 		Uiso   ? 		N 		-0.455859
N 1.0  		0.7477014051314507 		0.04714551782165896  0.12314285714285714 		Uiso   ? 		N 		-0.455859
N 1.0  		0.7477014051314507 		0.04714551782165896  0.6231428571428571 		Uiso   ? 		N 		-0.455859
N 1.0  		0.34762719164885886 		0.24708795484845356  0.12314285714285714 		Uiso   ? 		N 		-0.455228
N 1.0  		0.34762719164885886 		0.24708795484845356  0.6231428571428571 		Uiso   ? 		N 		-0.455228
N 1.0  		0.8476726236448481 		0.24708795484845356  0.12314285714285714 		Uiso   ? 		N 		-0.455228
N 1.0  		0.8476726236448481 		0.24708795484845356  0.6231428571428571 		Uiso   ? 		N 		-0.455228
N 1.0  		0.4475984101622561 		0.44721973130425086  0.12314285714285714 		Uiso   ? 		N 		-0.459120
N 1.0  		0.4475984101622561 		0.44721973130425086  0.6231428571428571 		Uiso   ? 		N 		-0.459120
N 1.0  		0.9476438421582454 		0.44721973130425086  0.12314285714285714 		Uiso   ? 		N 		-0.459120
N 1.0  		0.9476438421582454 		0.44721973130425086  0.6231428571428571 		Uiso   ? 		N 		-0.459120
N 1.0  		0.04752419667966421 		0.6471621683310455  0.12314285714285714 		Uiso   ? 		N 		-0.460262
N 1.0  		0.04752419667966421 		0.6471621683310455  0.6231428571428571 		Uiso   ? 		N 		-0.460262
N 1.0  		0.5475696286756534 		0.6471621683310455  0.12314285714285714 		Uiso   ? 		N 		-0.460262
N 1.0  		0.5475696286756534 		0.6471621683310455  0.6231428571428571 		Uiso   ? 		N 		-0.460262
N 1.0  		0.14768475462206415 		0.8471046053578402  0.12314285714285714 		Uiso   ? 		N 		-0.456113
N 1.0  		0.14768475462206415 		0.8471046053578402  0.6231428571428571 		Uiso   ? 		N 		-0.456113
N 1.0  		0.6477301866180534 		0.8471046053578402  0.12314285714285714 		Uiso   ? 		N 		-0.456113
N 1.0  		0.6477301866180534 		0.8471046053578402  0.6231428571428571 		Uiso   ? 		N 		-0.456113
N 1.0  		0.2434905056974033 		0.13499901287888688  0.12314285714285714 		Uiso   ? 		N 		-0.483036
N 1.0  		0.2434905056974033 		0.13499901287888688  0.6231428571428571 		Uiso   ? 		N 		-0.483036
N 1.0  		0.7435359376933925 		0.13499901287888688  0.12314285714285714 		Uiso   ? 		N 		-0.483036
N 1.0  		0.7435359376933925 		0.13499901287888688  0.6231428571428571 		Uiso   ? 		N 		-0.483036
N 1.0  		0.3434617242108006 		0.3349414499056815  0.12314285714285714 		Uiso   ? 		N 		-0.483614
N 1.0  		0.3434617242108006 		0.3349414499056815  0.6231428571428571 		Uiso   ? 		N 		-0.483614
N 1.0  		0.8435071562067898 		0.3349414499056815  0.12314285714285714 		Uiso   ? 		N 		-0.483614
N 1.0  		0.8435071562067898 		0.3349414499056815  0.6231428571428571 		Uiso   ? 		N 		-0.483614
N 1.0  		0.44343294272419786 		0.5348838869324761  0.12314285714285714 		Uiso   ? 		N 		-0.488128
N 1.0  		0.44343294272419786 		0.5348838869324761  0.6231428571428571 		Uiso   ? 		N 		-0.488128
N 1.0  		0.943478374720187 		0.5348838869324761  0.12314285714285714 		Uiso   ? 		N 		-0.488128
N 1.0  		0.943478374720187 		0.5348838869324761  0.6231428571428571 		Uiso   ? 		N 		-0.488128
N 1.0  		0.04354806867060864 		0.7350156633882734  0.12314285714285714 		Uiso   ? 		N 		-0.485761
N 1.0  		0.04354806867060864 		0.7350156633882734  0.6231428571428571 		Uiso   ? 		N 		-0.485761
N 1.0  		0.5435935006665978 		0.7350156633882734  0.12314285714285714 		Uiso   ? 		N 		-0.485761
N 1.0  		0.5435935006665978 		0.7350156633882734  0.6231428571428571 		Uiso   ? 		N 		-0.485761
N 1.0  		0.14351928718400594 		0.934958100415068  0.12314285714285714 		Uiso   ? 		N 		-0.482436
N 1.0  		0.14351928718400594 		0.934958100415068  0.6231428571428571 		Uiso   ? 		N 		-0.482436
N 1.0  		0.6435647191799951 		0.934958100415068  0.12314285714285714 		Uiso   ? 		N 		-0.482436
N 1.0  		0.6435647191799951 		0.934958100415068  0.6231428571428571 		Uiso   ? 		N 		-0.482436
N 1.0  		0.20448658332285816 		0.07289568016601887  0.12314285714285714 		Uiso   ? 		N 		-0.373594
N 1.0  		0.20448658332285816 		0.07289568016601887  0.6231428571428571 		Uiso   ? 		N 		-0.373594
N 1.0  		0.7045320153188473 		0.07289568016601887  0.12314285714285714 		Uiso   ? 		N 		-0.373594
N 1.0  		0.7045320153188473 		0.07289568016601887  0.6231428571428571 		Uiso   ? 		N 		-0.373594
N 1.0  		0.3044578018362555 		0.2728381171928135  0.12314285714285714 		Uiso   ? 		N 		-0.372943
N 1.0  		0.3044578018362555 		0.2728381171928135  0.6231428571428571 		Uiso   ? 		N 		-0.372943
N 1.0  		0.8045032338322445 		0.2728381171928135  0.12314285714285714 		Uiso   ? 		N 		-0.372943
N 1.0  		0.8045032338322445 		0.2728381171928135  0.6231428571428571 		Uiso   ? 		N 		-0.372943
N 1.0  		0.4044290203496527 		0.4729698936486108  0.12314285714285714 		Uiso   ? 		N 		-0.373237
N 1.0  		0.4044290203496527 		0.4729698936486108  0.6231428571428571 		Uiso   ? 		N 		-0.373237
N 1.0  		0.9044744523456419 		0.4729698936486108  0.12314285714285714 		Uiso   ? 		N 		-0.373237
N 1.0  		0.9044744523456419 		0.4729698936486108  0.6231428571428571 		Uiso   ? 		N 		-0.373237
N 1.0  		0.004544146296063473 		0.6729123306754053  0.12314285714285714 		Uiso   ? 		N 		-0.376463
N 1.0  		0.004544146296063473 		0.6729123306754053  0.6231428571428571 		Uiso   ? 		N 		-0.376463
N 1.0  		0.5045895782920528 		0.6729123306754053  0.12314285714285714 		Uiso   ? 		N 		-0.376463
N 1.0  		0.5045895782920528 		0.6729123306754053  0.6231428571428571 		Uiso   ? 		N 		-0.376463
N 1.0  		0.10451536480946078 		0.8728547677022  0.12314285714285714 		Uiso   ? 		N 		-0.372672
N 1.0  		0.10451536480946078 		0.8728547677022  0.6231428571428571 		Uiso   ? 		N 		-0.372672
N 1.0  		0.60456079680545 		0.8728547677022  0.12314285714285714 		Uiso   ? 		N 		-0.372672
N 1.0  		0.60456079680545 		0.8728547677022  0.6231428571428571 		Uiso   ? 		N 		-0.372672
N 1.0  		0.08312000933216178 		0.04335872924160603  0.12314285714285714 		Uiso   ? 		N 		-0.418620
N 1.0  		0.08312000933216178 		0.04335872924160603  0.6231428571428571 		Uiso   ? 		N 		-0.418620
N 1.0  		0.583165441328151 		0.04335872924160603  0.12314285714285714 		Uiso   ? 		N 		-0.418620
N 1.0  		0.583165441328151 		0.04335872924160603  0.6231428571428571 		Uiso   ? 		N 		-0.418620
N 1.0  		0.18309122784555906 		0.24330116626840065  0.12314285714285714 		Uiso   ? 		N 		-0.418464
N 1.0  		0.18309122784555906 		0.24330116626840065  0.6231428571428571 		Uiso   ? 		N 		-0.418464
N 1.0  		0.6831366598415483 		0.24330116626840065  0.12314285714285714 		Uiso   ? 		N 		-0.418464
N 1.0  		0.6831366598415483 		0.24330116626840065  0.6231428571428571 		Uiso   ? 		N 		-0.418464
N 1.0  		0.28306244635895644 		0.4434329427241979  0.12314285714285714 		Uiso   ? 		N 		-0.415084
N 1.0  		0.28306244635895644 		0.4434329427241979  0.6231428571428571 		Uiso   ? 		N 		-0.415084
N 1.0  		0.7831078783549457 		0.4434329427241979  0.12314285714285714 		Uiso   ? 		N 		-0.415084
N 1.0  		0.7831078783549457 		0.4434329427241979  0.6231428571428571 		Uiso   ? 		N 		-0.415084
N 1.0  		0.3832230043013563 		0.6433753797509926  0.12314285714285714 		Uiso   ? 		N 		-0.419539
N 1.0  		0.3832230043013563 		0.6433753797509926  0.6231428571428571 		Uiso   ? 		N 		-0.419539
N 1.0  		0.8832684362973455 		0.6433753797509926  0.12314285714285714 		Uiso   ? 		N 		-0.419539
N 1.0  		0.8832684362973455 		0.6433753797509926  0.6231428571428571 		Uiso   ? 		N 		-0.419539
N 1.0  		0.4831942228147536 		0.8433178167777872  0.12314285714285714 		Uiso   ? 		N 		-0.421110
N 1.0  		0.4831942228147536 		0.8433178167777872  0.6231428571428571 		Uiso   ? 		N 		-0.421110
N 1.0  		0.9832396548107428 		0.8433178167777872  0.12314285714285714 		Uiso   ? 		N 		-0.421110
N 1.0  		0.9832396548107428 		0.8433178167777872  0.6231428571428571 		Uiso   ? 		N 		-0.421110
N 1.0  		0.11985185855867518 		0.06910889158596595  0.12314285714285714 		Uiso   ? 		N 		-0.534717
N 1.0  		0.11985185855867518 		0.06910889158596595  0.6231428571428571 		Uiso   ? 		N 		-0.534717
N 1.0  		0.6198972905546644 		0.06910889158596595  0.12314285714285714 		Uiso   ? 		N 		-0.534717
N 1.0  		0.6198972905546644 		0.06910889158596595  0.6231428571428571 		Uiso   ? 		N 		-0.534717
N 1.0  		0.21982307707207246 		0.2692406680417632  0.12314285714285714 		Uiso   ? 		N 		-0.531203
N 1.0  		0.21982307707207246 		0.2692406680417632  0.6231428571428571 		Uiso   ? 		N 		-0.531203
N 1.0  		0.7198685090680617 		0.2692406680417632  0.12314285714285714 		Uiso   ? 		N 		-0.531203
N 1.0  		0.7198685090680617 		0.2692406680417632  0.6231428571428571 		Uiso   ? 		N 		-0.531203
N 1.0  		0.3197942955854698 		0.46918310506855787  0.12314285714285714 		Uiso   ? 		N 		-0.531004
N 1.0  		0.3197942955854698 		0.46918310506855787  0.6231428571428571 		Uiso   ? 		N 		-0.531004
N 1.0  		0.8198397275814591 		0.46918310506855787  0.12314285714285714 		Uiso   ? 		N 		-0.531004
N 1.0  		0.8198397275814591 		0.46918310506855787  0.6231428571428571 		Uiso   ? 		N 		-0.531004
N 1.0  		0.4197655140988671 		0.6691255420953525  0.12314285714285714 		Uiso   ? 		N 		-0.531823
N 1.0  		0.4197655140988671 		0.6691255420953525  0.6231428571428571 		Uiso   ? 		N 		-0.531823
N 1.0  		0.9198109460948563 		0.6691255420953525  0.12314285714285714 		Uiso   ? 		N 		-0.531823
N 1.0  		0.9198109460948563 		0.6691255420953525  0.6231428571428571 		Uiso   ? 		N 		-0.531823
N 1.0  		0.01988064004527782 		0.8690679791221471  0.12314285714285714 		Uiso   ? 		N 		-0.535660
N 1.0  		0.01988064004527782 		0.8690679791221471  0.6231428571428571 		Uiso   ? 		N 		-0.535660
N 1.0  		0.5199260720412671 		0.8690679791221471  0.12314285714285714 		Uiso   ? 		N 		-0.535660
N 1.0  		0.5199260720412671 		0.8690679791221471  0.6231428571428571 		Uiso   ? 		N 		-0.535660
N 1.0  		0.07573577160105857 		0.08652811905420942  0.12314285714285714 		Uiso   ? 		N 		-0.421034
N 1.0  		0.07573577160105857 		0.08652811905420942  0.6231428571428571 		Uiso   ? 		N 		-0.421034
N 1.0  		0.5757812035970478 		0.08652811905420942  0.12314285714285714 		Uiso   ? 		N 		-0.421034
N 1.0  		0.5757812035970478 		0.08652811905420942  0.6231428571428571 		Uiso   ? 		N 		-0.421034
N 1.0  		0.17570699011445587 		0.286470556081004  0.12314285714285714 		Uiso   ? 		N 		-0.423767
N 1.0  		0.17570699011445587 		0.286470556081004  0.6231428571428571 		Uiso   ? 		N 		-0.423767
N 1.0  		0.6757524221104451 		0.286470556081004  0.12314285714285714 		Uiso   ? 		N 		-0.423767
N 1.0  		0.6757524221104451 		0.286470556081004  0.6231428571428571 		Uiso   ? 		N 		-0.423767
N 1.0  		0.27567820862785314 		0.4866023325368013  0.12314285714285714 		Uiso   ? 		N 		-0.421956
N 1.0  		0.27567820862785314 		0.4866023325368013  0.6231428571428571 		Uiso   ? 		N 		-0.421956
N 1.0  		0.7757236406238425 		0.4866023325368013  0.12314285714285714 		Uiso   ? 		N 		-0.421956
N 1.0  		0.7757236406238425 		0.4866023325368013  0.6231428571428571 		Uiso   ? 		N 		-0.421956
N 1.0  		0.37564942714125044 		0.6865447695635959  0.12314285714285714 		Uiso   ? 		N 		-0.421740
N 1.0  		0.37564942714125044 		0.6865447695635959  0.6231428571428571 		Uiso   ? 		N 		-0.421740
N 1.0  		0.8756948591372397 		0.6865447695635959  0.12314285714285714 		Uiso   ? 		N 		-0.421740
N 1.0  		0.8756948591372397 		0.6865447695635959  0.6231428571428571 		Uiso   ? 		N 		-0.421740
N 1.0  		0.47562064565464773 		0.8864872065903906  0.12314285714285714 		Uiso   ? 		N 		-0.417279
N 1.0  		0.47562064565464773 		0.8864872065903906  0.6231428571428571 		Uiso   ? 		N 		-0.417279
N 1.0  		0.975666077650637 		0.8864872065903906  0.12314285714285714 		Uiso   ? 		N 		-0.417279
N 1.0  		0.975666077650637 		0.8864872065903906  0.6231428571428571 		Uiso   ? 		N 		-0.417279
N 1.0  		0.03521713379449223 		0.11133158425355609  0.12314285714285714 		Uiso   ? 		N 		-0.535499
N 1.0  		0.03521713379449223 		0.11133158425355609  0.6231428571428571 		Uiso   ? 		N 		-0.535499
N 1.0  		0.5352625657904815 		0.11133158425355609  0.12314285714285714 		Uiso   ? 		N 		-0.535499
N 1.0  		0.5352625657904815 		0.11133158425355609  0.6231428571428571 		Uiso   ? 		N 		-0.535499
N 1.0  		0.13537769173689215 		0.3112740212803507  0.12314285714285714 		Uiso   ? 		N 		-0.534527
N 1.0  		0.13537769173689215 		0.3112740212803507  0.6231428571428571 		Uiso   ? 		N 		-0.534527
N 1.0  		0.6354231237328813 		0.3112740212803507  0.12314285714285714 		Uiso   ? 		N 		-0.534527
N 1.0  		0.6354231237328813 		0.3112740212803507  0.6231428571428571 		Uiso   ? 		N 		-0.534527
N 1.0  		0.2353489102502895 		0.511405797736148  0.12314285714285714 		Uiso   ? 		N 		-0.533099
N 1.0  		0.2353489102502895 		0.511405797736148  0.6231428571428571 		Uiso   ? 		N 		-0.533099
N 1.0  		0.7353943422462786 		0.511405797736148  0.12314285714285714 		Uiso   ? 		N 		-0.533099
N 1.0  		0.7353943422462786 		0.511405797736148  0.6231428571428571 		Uiso   ? 		N 		-0.533099
N 1.0  		0.3353201287636867 		0.7113482347629426  0.12314285714285714 		Uiso   ? 		N 		-0.531504
N 1.0  		0.3353201287636867 		0.7113482347629426  0.6231428571428571 		Uiso   ? 		N 		-0.531504
N 1.0  		0.835365560759676 		0.7113482347629426  0.12314285714285714 		Uiso   ? 		N 		-0.531504
N 1.0  		0.835365560759676 		0.7113482347629426  0.6231428571428571 		Uiso   ? 		N 		-0.531504
N 1.0  		0.4352913472770841 		0.9112906717897372  0.12314285714285714 		Uiso   ? 		N 		-0.533757
N 1.0  		0.4352913472770841 		0.9112906717897372  0.6231428571428571 		Uiso   ? 		N 		-0.533757
N 1.0  		0.9353367792730732 		0.9112906717897372  0.12314285714285714 		Uiso   ? 		N 		-0.533757
N 1.0  		0.9353367792730732 		0.9112906717897372  0.6231428571428571 		Uiso   ? 		N 		-0.533757
N 1.0  		0.09107226535027292 		0.00037867885800529287  0.12314285714285714 		Uiso   ? 		N 		-0.457802
N 1.0  		0.09107226535027292 		0.00037867885800529287  0.6231428571428571 		Uiso   ? 		N 		-0.457802
N 1.0  		0.5911176973462621 		0.00037867885800529287  0.12314285714285714 		Uiso   ? 		N 		-0.457802
N 1.0  		0.5911176973462621 		0.00037867885800529287  0.6231428571428571 		Uiso   ? 		N 		-0.457802
N 1.0  		0.19104348386367023 		0.20051045531380254  0.12314285714285714 		Uiso   ? 		N 		-0.461919
N 1.0  		0.19104348386367023 		0.20051045531380254  0.6231428571428571 		Uiso   ? 		N 		-0.461919
N 1.0  		0.6910889158596594 		0.20051045531380254  0.12314285714285714 		Uiso   ? 		N 		-0.461919
N 1.0  		0.6910889158596594 		0.20051045531380254  0.6231428571428571 		Uiso   ? 		N 		-0.461919
N 1.0  		0.29101470237706756 		0.4004528923405972  0.12314285714285714 		Uiso   ? 		N 		-0.454397
N 1.0  		0.29101470237706756 		0.4004528923405972  0.6231428571428571 		Uiso   ? 		N 		-0.454397
N 1.0  		0.7910601343730568 		0.4004528923405972  0.12314285714285714 		Uiso   ? 		N 		-0.454397
N 1.0  		0.7910601343730568 		0.4004528923405972  0.6231428571428571 		Uiso   ? 		N 		-0.454397
N 1.0  		0.3911752603194674 		0.6003953293673918  0.12314285714285714 		Uiso   ? 		N 		-0.460367
N 1.0  		0.3911752603194674 		0.6003953293673918  0.6231428571428571 		Uiso   ? 		N 		-0.460367
N 1.0  		0.8912206923154566 		0.6003953293673918  0.12314285714285714 		Uiso   ? 		N 		-0.460367
N 1.0  		0.8912206923154566 		0.6003953293673918  0.6231428571428571 		Uiso   ? 		N 		-0.460367
N 1.0  		0.4911464788328647 		0.8003377663941865  0.12314285714285714 		Uiso   ? 		N 		-0.458288
N 1.0  		0.4911464788328647 		0.8003377663941865  0.6231428571428571 		Uiso   ? 		N 		-0.458288
N 1.0  		0.991191910828854 		0.8003377663941865  0.12314285714285714 		Uiso   ? 		N 		-0.458288
N 1.0  		0.991191910828854 		0.8003377663941865  0.6231428571428571 		Uiso   ? 		N 		-0.458288
N 1.0  		0.20164649188781844 		0.11587573054961961  0.12314285714285714 		Uiso   ? 		N 		-0.428168
N 1.0  		0.20164649188781844 		0.11587573054961961  0.6231428571428571 		Uiso   ? 		N 		-0.428168
N 1.0  		0.7016919238838076 		0.11587573054961961  0.12314285714285714 		Uiso   ? 		N 		-0.428168
N 1.0  		0.7016919238838076 		0.11587573054961961  0.6231428571428571 		Uiso   ? 		N 		-0.428168
N 1.0  		0.30161771040121577 		0.31581816757641423  0.12314285714285714 		Uiso   ? 		N 		-0.425405
N 1.0  		0.30161771040121577 		0.31581816757641423  0.6231428571428571 		Uiso   ? 		N 		-0.425405
N 1.0  		0.8016631423972049 		0.31581816757641423  0.12314285714285714 		Uiso   ? 		N 		-0.425405
N 1.0  		0.8016631423972049 		0.31581816757641423  0.6231428571428571 		Uiso   ? 		N 		-0.425405
N 1.0  		0.40177826834361563 		0.5159499440322115  0.12314285714285714 		Uiso   ? 		N 		-0.429775
N 1.0  		0.40177826834361563 		0.5159499440322115  0.6231428571428571 		Uiso   ? 		N 		-0.429775
N 1.0  		0.9018237003396049 		0.5159499440322115  0.12314285714285714 		Uiso   ? 		N 		-0.429775
N 1.0  		0.9018237003396049 		0.5159499440322115  0.6231428571428571 		Uiso   ? 		N 		-0.429775
N 1.0  		0.001704054861023774 		0.7158923810590061  0.12314285714285714 		Uiso   ? 		N 		-0.429160
N 1.0  		0.001704054861023774 		0.7158923810590061  0.6231428571428571 		Uiso   ? 		N 		-0.429160
N 1.0  		0.501749486857013 		0.7158923810590061  0.12314285714285714 		Uiso   ? 		N 		-0.429160
N 1.0  		0.501749486857013 		0.7158923810590061  0.6231428571428571 		Uiso   ? 		N 		-0.429160
N 1.0  		0.10167527337442107 		0.9158348180858007  0.12314285714285714 		Uiso   ? 		N 		-0.429296
N 1.0  		0.10167527337442107 		0.9158348180858007  0.6231428571428571 		Uiso   ? 		N 		-0.429296
N 1.0  		0.6017207053704102 		0.9158348180858007  0.12314285714285714 		Uiso   ? 		N 		-0.429296
N 1.0  		0.6017207053704102 		0.9158348180858007  0.6231428571428571 		Uiso   ? 		N 		-0.429296
N 1.0  		0.20107847360081052 		0.15809842321720977  0.12314285714285714 		Uiso   ? 		N 		-0.348745
N 1.0  		0.20107847360081052 		0.15809842321720977  0.6231428571428571 		Uiso   ? 		N 		-0.348745
N 1.0  		0.7011239055967997 		0.15809842321720977  0.12314285714285714 		Uiso   ? 		N 		-0.348745
N 1.0  		0.7011239055967997 		0.15809842321720977  0.6231428571428571 		Uiso   ? 		N 		-0.348745
N 1.0  		0.30104969211420785 		0.358230199673007  0.12314285714285714 		Uiso   ? 		N 		-0.348315
N 1.0  		0.30104969211420785 		0.358230199673007  0.6231428571428571 		Uiso   ? 		N 		-0.348315
N 1.0  		0.801095124110197 		0.358230199673007  0.12314285714285714 		Uiso   ? 		N 		-0.348315
N 1.0  		0.801095124110197 		0.358230199673007  0.6231428571428571 		Uiso   ? 		N 		-0.348315
N 1.0  		0.40102091062760503 		0.5581726366998017  0.12314285714285714 		Uiso   ? 		N 		-0.351949
N 1.0  		0.40102091062760503 		0.5581726366998017  0.6231428571428571 		Uiso   ? 		N 		-0.351949
N 1.0  		0.9010663426235944 		0.5581726366998017  0.12314285714285714 		Uiso   ? 		N 		-0.351949
N 1.0  		0.9010663426235944 		0.5581726366998017  0.6231428571428571 		Uiso   ? 		N 		-0.351949
N 1.0  		0.0011360365740158323 		0.7581150737265961  0.12314285714285714 		Uiso   ? 		N 		-0.350121
N 1.0  		0.0011360365740158323 		0.7581150737265961  0.6231428571428571 		Uiso   ? 		N 		-0.350121
N 1.0  		0.501181468570005 		0.7581150737265961  0.12314285714285714 		Uiso   ? 		N 		-0.350121
N 1.0  		0.501181468570005 		0.7581150737265961  0.6231428571428571 		Uiso   ? 		N 		-0.350121
N 1.0  		0.10110725508741314 		0.9580575107533909  0.12314285714285714 		Uiso   ? 		N 		-0.346117
N 1.0  		0.10110725508741314 		0.9580575107533909  0.6231428571428571 		Uiso   ? 		N 		-0.346117
N 1.0  		0.6011526870834022 		0.9580575107533909  0.12314285714285714 		Uiso   ? 		N 		-0.346117
N 1.0  		0.6011526870834022 		0.9580575107533909  0.6231428571428571 		Uiso   ? 		N 		-0.346117
N 1.0  		0.2853345195069881 		0.11133158425355609  0.22314285714285714 		Uiso   ? 		N 		-0.536933
N 1.0  		0.2853345195069881 		0.11133158425355609  0.7231428571428572 		Uiso   ? 		N 		-0.536933
N 1.0  		0.7853799515029773 		0.11133158425355609  0.22314285714285714 		Uiso   ? 		N 		-0.536933
N 1.0  		0.7853799515029773 		0.11133158425355609  0.7231428571428572 		Uiso   ? 		N 		-0.536933
N 1.0  		0.3853057380203855 		0.3114633607093534  0.22314285714285714 		Uiso   ? 		N 		-0.533484
N 1.0  		0.3853057380203855 		0.3114633607093534  0.7231428571428572 		Uiso   ? 		N 		-0.533484
N 1.0  		0.8853511700163748 		0.3114633607093534  0.22314285714285714 		Uiso   ? 		N 		-0.533484
N 1.0  		0.8853511700163748 		0.3114633607093534  0.7231428571428572 		Uiso   ? 		N 		-0.533484
N 1.0  		0.4852769565337828 		0.511405797736148  0.22314285714285714 		Uiso   ? 		N 		-0.534199
N 1.0  		0.4852769565337828 		0.511405797736148  0.7231428571428572 		Uiso   ? 		N 		-0.534199
N 1.0  		0.9853223885297719 		0.511405797736148  0.22314285714285714 		Uiso   ? 		N 		-0.534199
N 1.0  		0.9853223885297719 		0.511405797736148  0.7231428571428572 		Uiso   ? 		N 		-0.534199
N 1.0  		0.08539208248019349 		0.7113482347629426  0.22314285714285714 		Uiso   ? 		N 		-0.535430
N 1.0  		0.08539208248019349 		0.7113482347629426  0.7231428571428572 		Uiso   ? 		N 		-0.535430
N 1.0  		0.5854375144761828 		0.7113482347629426  0.22314285714285714 		Uiso   ? 		N 		-0.535430
N 1.0  		0.5854375144761828 		0.7113482347629426  0.7231428571428572 		Uiso   ? 		N 		-0.535430
N 1.0  		0.1853633009935908 		0.9112906717897372  0.22314285714285714 		Uiso   ? 		N 		-0.535995
N 1.0  		0.1853633009935908 		0.9112906717897372  0.7231428571428572 		Uiso   ? 		N 		-0.535995
N 1.0  		0.6854087329895799 		0.9112906717897372  0.22314285714285714 		Uiso   ? 		N 		-0.535995
N 1.0  		0.6854087329895799 		0.9112906717897372  0.7231428571428572 		Uiso   ? 		N 		-0.535995
N 1.0  		0.45782273932839906 		0.029726290353415487  0.22314285714285714 		Uiso   ? 		N 		-0.347350
N 1.0  		0.45782273932839906 		0.029726290353415487  0.7231428571428572 		Uiso   ? 		N 		-0.347350
N 1.0  		0.9578681713243883 		0.029726290353415487  0.22314285714285714 		Uiso   ? 		N 		-0.347350
N 1.0  		0.9578681713243883 		0.029726290353415487  0.7231428571428572 		Uiso   ? 		N 		-0.347350
N 1.0  		0.05774852584580714 		0.22966872738021013  0.22314285714285714 		Uiso   ? 		N 		-0.349409
N 1.0  		0.05774852584580714 		0.22966872738021013  0.7231428571428572 		Uiso   ? 		N 		-0.349409
N 1.0  		0.5577939578417964 		0.22966872738021013  0.22314285714285714 		Uiso   ? 		N 		-0.349409
N 1.0  		0.5577939578417964 		0.22966872738021013  0.7231428571428572 		Uiso   ? 		N 		-0.349409
N 1.0  		0.15771974435920444 		0.42961116440700475  0.22314285714285714 		Uiso   ? 		N 		-0.346773
N 1.0  		0.15771974435920444 		0.42961116440700475  0.7231428571428572 		Uiso   ? 		N 		-0.346773
N 1.0  		0.6577651763551937 		0.42961116440700475  0.22314285714285714 		Uiso   ? 		N 		-0.346773
N 1.0  		0.6577651763551937 		0.42961116440700475  0.7231428571428572 		Uiso   ? 		N 		-0.346773
N 1.0  		0.25769096287260174 		0.629742940862802  0.22314285714285714 		Uiso   ? 		N 		-0.346913
N 1.0  		0.25769096287260174 		0.629742940862802  0.7231428571428572 		Uiso   ? 		N 		-0.346913
N 1.0  		0.7577363948685909 		0.629742940862802  0.22314285714285714 		Uiso   ? 		N 		-0.346913
N 1.0  		0.7577363948685909 		0.629742940862802  0.7231428571428572 		Uiso   ? 		N 		-0.346913
N 1.0  		0.35785152081500166 		0.8296853778895965  0.22314285714285714 		Uiso   ? 		N 		-0.346705
N 1.0  		0.35785152081500166 		0.8296853778895965  0.7231428571428572 		Uiso   ? 		N 		-0.346705
N 1.0  		0.8578969528109909 		0.8296853778895965  0.22314285714285714 		Uiso   ? 		N 		-0.346705
N 1.0  		0.8578969528109909 		0.8296853778895965  0.7231428571428572 		Uiso   ? 		N 		-0.346705
N 1.0  		0.4975840194189548 		0.04695617839265631  0.22314285714285714 		Uiso   ? 		N 		-0.459089
N 1.0  		0.4975840194189548 		0.04695617839265631  0.7231428571428572 		Uiso   ? 		N 		-0.459089
N 1.0  		0.997629451414944 		0.04695617839265631  0.22314285714285714 		Uiso   ? 		N 		-0.459089
N 1.0  		0.997629451414944 		0.04695617839265631  0.7231428571428572 		Uiso   ? 		N 		-0.459089
N 1.0  		0.0975098059363629 		0.24708795484845356  0.22314285714285714 		Uiso   ? 		N 		-0.458877
N 1.0  		0.0975098059363629 		0.24708795484845356  0.7231428571428572 		Uiso   ? 		N 		-0.458877
N 1.0  		0.5975552379323521 		0.24708795484845356  0.22314285714285714 		Uiso   ? 		N 		-0.458877
N 1.0  		0.5975552379323521 		0.24708795484845356  0.7231428571428572 		Uiso   ? 		N 		-0.458877
N 1.0  		0.19767036387876286 		0.44703039187524823  0.22314285714285714 		Uiso   ? 		N 		-0.457027
N 1.0  		0.19767036387876286 		0.44703039187524823  0.7231428571428572 		Uiso   ? 		N 		-0.457027
N 1.0  		0.6977157958747521 		0.44703039187524823  0.22314285714285714 		Uiso   ? 		N 		-0.457027
N 1.0  		0.6977157958747521 		0.44703039187524823  0.7231428571428572 		Uiso   ? 		N 		-0.457027
N 1.0  		0.29764158239216015 		0.6469728289020428  0.22314285714285714 		Uiso   ? 		N 		-0.456864
N 1.0  		0.29764158239216015 		0.6469728289020428  0.7231428571428572 		Uiso   ? 		N 		-0.456864
N 1.0  		0.7976870143881494 		0.6469728289020428  0.22314285714285714 		Uiso   ? 		N 		-0.456864
N 1.0  		0.7976870143881494 		0.6469728289020428  0.7231428571428572 		Uiso   ? 		N 		-0.456864
N 1.0  		0.39761280090555745 		0.8471046053578402  0.22314285714285714 		Uiso   ? 		N 		-0.457857
N 1.0  		0.39761280090555745 		0.8471046053578402  0.7231428571428572 		Uiso   ? 		N 		-0.457857
N 1.0  		0.8976582329015467 		0.8471046053578402  0.22314285714285714 		Uiso   ? 		N 		-0.457857
N 1.0  		0.8976582329015467 		0.8471046053578402  0.7231428571428572 		Uiso   ? 		N 		-0.457857
N 1.0  		0.32566381788455184 		0.08652811905420942  0.22314285714285714 		Uiso   ? 		N 		-0.417966
N 1.0  		0.32566381788455184 		0.08652811905420942  0.7231428571428572 		Uiso   ? 		N 		-0.417966
N 1.0  		0.825709249880541 		0.08652811905420942  0.22314285714285714 		Uiso   ? 		N 		-0.417966
N 1.0  		0.825709249880541 		0.08652811905420942  0.7231428571428572 		Uiso   ? 		N 		-0.417966
N 1.0  		0.4258243758269518 		0.286470556081004  0.22314285714285714 		Uiso   ? 		N 		-0.420603
N 1.0  		0.4258243758269518 		0.286470556081004  0.7231428571428572 		Uiso   ? 		N 		-0.420603
N 1.0  		0.9258698078229409 		0.286470556081004  0.22314285714285714 		Uiso   ? 		N 		-0.420603
N 1.0  		0.9258698078229409 		0.286470556081004  0.7231428571428572 		Uiso   ? 		N 		-0.420603
N 1.0  		0.025750162344359884 		0.4864129931077987  0.22314285714285714 		Uiso   ? 		N 		-0.417582
N 1.0  		0.025750162344359884 		0.4864129931077987  0.7231428571428572 		Uiso   ? 		N 		-0.417582
N 1.0  		0.5257955943403492 		0.4864129931077987  0.22314285714285714 		Uiso   ? 		N 		-0.417582
N 1.0  		0.5257955943403492 		0.4864129931077987  0.7231428571428572 		Uiso   ? 		N 		-0.417582
N 1.0  		0.12572138085775716 		0.6865447695635959  0.22314285714285714 		Uiso   ? 		N 		-0.416482
N 1.0  		0.12572138085775716 		0.6865447695635959  0.7231428571428572 		Uiso   ? 		N 		-0.416482
N 1.0  		0.6257668128537465 		0.6865447695635959  0.22314285714285714 		Uiso   ? 		N 		-0.416482
N 1.0  		0.6257668128537465 		0.6865447695635959  0.7231428571428572 		Uiso   ? 		N 		-0.416482
N 1.0  		0.22569259937115446 		0.8864872065903906  0.22314285714285714 		Uiso   ? 		N 		-0.418602
N 1.0  		0.22569259937115446 		0.8864872065903906  0.7231428571428572 		Uiso   ? 		N 		-0.418602
N 1.0  		0.7257380313671438 		0.8864872065903906  0.22314285714285714 		Uiso   ? 		N 		-0.418602
N 1.0  		0.7257380313671438 		0.8864872065903906  0.7231428571428572 		Uiso   ? 		N 		-0.418602
N 1.0  		0.17362425639542678 		0.004922825154068807  0.22314285714285714 		Uiso   ? 		N 		-0.431055
N 1.0  		0.17362425639542678 		0.004922825154068807  0.7231428571428572 		Uiso   ? 		N 		-0.431055
N 1.0  		0.6736696883914159 		0.004922825154068807  0.22314285714285714 		Uiso   ? 		N 		-0.431055
N 1.0  		0.6736696883914159 		0.004922825154068807  0.7231428571428572 		Uiso   ? 		N 		-0.431055
N 1.0  		0.2735954749088241 		0.20486526218086346  0.22314285714285714 		Uiso   ? 		N 		-0.425626
N 1.0  		0.2735954749088241 		0.20486526218086346  0.7231428571428572 		Uiso   ? 		N 		-0.425626
N 1.0  		0.7736409069048134 		0.20486526218086346  0.22314285714285714 		Uiso   ? 		N 		-0.425626
N 1.0  		0.7736409069048134 		0.20486526218086346  0.7231428571428572 		Uiso   ? 		N 		-0.425626
N 1.0  		0.37356669342222143 		0.404807699207658  0.22314285714285714 		Uiso   ? 		N 		-0.423621
N 1.0  		0.37356669342222143 		0.404807699207658  0.7231428571428572 		Uiso   ? 		N 		-0.423621
N 1.0  		0.8736121254182105 		0.404807699207658  0.22314285714285714 		Uiso   ? 		N 		-0.423621
N 1.0  		0.8736121254182105 		0.404807699207658  0.7231428571428572 		Uiso   ? 		N 		-0.423621
N 1.0  		0.4735379119356186 		0.6049394756634553  0.22314285714285714 		Uiso   ? 		N 		-0.431585
N 1.0  		0.4735379119356186 		0.6049394756634553  0.7231428571428572 		Uiso   ? 		N 		-0.431585
N 1.0  		0.973583343931608 		0.6049394756634553  0.22314285714285714 		Uiso   ? 		N 		-0.431585
N 1.0  		0.973583343931608 		0.6049394756634553  0.7231428571428572 		Uiso   ? 		N 		-0.431585
N 1.0  		0.0736530378820294 		0.80488191269025  0.22314285714285714 		Uiso   ? 		N 		-0.431116
N 1.0  		0.0736530378820294 		0.80488191269025  0.7231428571428572 		Uiso   ? 		N 		-0.431116
N 1.0  		0.5736984698780186 		0.80488191269025  0.22314285714285714 		Uiso   ? 		N 		-0.431116
N 1.0  		0.5736984698780186 		0.80488191269025  0.7231428571428572 		Uiso   ? 		N 		-0.431116
N 1.0  		0.4235523026789201 		0.004733485725066161  0.22314285714285714 		Uiso   ? 		N 		-0.425780
N 1.0  		0.4235523026789201 		0.004733485725066161  0.7231428571428572 		Uiso   ? 		N 		-0.425780
N 1.0  		0.9235977346749092 		0.004733485725066161  0.22314285714285714 		Uiso   ? 		N 		-0.425780
N 1.0  		0.9235977346749092 		0.004733485725066161  0.7231428571428572 		Uiso   ? 		N 		-0.425780
N 1.0  		0.023478089196328142 		0.20486526218086346  0.22314285714285714 		Uiso   ? 		N 		-0.427553
N 1.0  		0.023478089196328142 		0.20486526218086346  0.7231428571428572 		Uiso   ? 		N 		-0.427553
N 1.0  		0.5235235211923174 		0.20486526218086346  0.22314285714285714 		Uiso   ? 		N 		-0.427553
N 1.0  		0.5235235211923174 		0.20486526218086346  0.7231428571428572 		Uiso   ? 		N 		-0.427553
N 1.0  		0.12363864713872809 		0.404807699207658  0.22314285714285714 		Uiso   ? 		N 		-0.428925
N 1.0  		0.12363864713872809 		0.404807699207658  0.7231428571428572 		Uiso   ? 		N 		-0.428925
N 1.0  		0.6236840791347174 		0.404807699207658  0.22314285714285714 		Uiso   ? 		N 		-0.428925
N 1.0  		0.6236840791347174 		0.404807699207658  0.7231428571428572 		Uiso   ? 		N 		-0.428925
N 1.0  		0.2236098656521254 		0.6047501362344526  0.22314285714285714 		Uiso   ? 		N 		-0.426613
N 1.0  		0.2236098656521254 		0.6047501362344526  0.7231428571428572 		Uiso   ? 		N 		-0.426613
N 1.0  		0.7236552976481146 		0.6047501362344526  0.22314285714285714 		Uiso   ? 		N 		-0.426613
N 1.0  		0.7236552976481146 		0.6047501362344526  0.7231428571428572 		Uiso   ? 		N 		-0.426613
N 1.0  		0.32358108416552267 		0.80488191269025  0.22314285714285714 		Uiso   ? 		N 		-0.432020
N 1.0  		0.32358108416552267 		0.80488191269025  0.7231428571428572 		Uiso   ? 		N 		-0.432020
N 1.0  		0.8236265161615118 		0.80488191269025  0.22314285714285714 		Uiso   ? 		N 		-0.432020
N 1.0  		0.8236265161615118 		0.80488191269025  0.7231428571428572 		Uiso   ? 		N 		-0.432020
N 1.0  		0.48754902968181457 		0.18119783355553262  0.22314285714285714 		Uiso   ? 		N 		-0.371319
N 1.0  		0.48754902968181457 		0.18119783355553262  0.7231428571428572 		Uiso   ? 		N 		-0.371319
N 1.0  		0.9875944616778037 		0.18119783355553262  0.22314285714285714 		Uiso   ? 		N 		-0.371319
N 1.0  		0.9875944616778037 		0.18119783355553262  0.7231428571428572 		Uiso   ? 		N 		-0.371319
N 1.0  		0.08747481619922262 		0.38132961001132987  0.22314285714285714 		Uiso   ? 		N 		-0.374313
N 1.0  		0.08747481619922262 		0.38132961001132987  0.7231428571428572 		Uiso   ? 		N 		-0.374313
N 1.0  		0.5875202481952119 		0.38132961001132987  0.22314285714285714 		Uiso   ? 		N 		-0.374313
N 1.0  		0.5875202481952119 		0.38132961001132987  0.7231428571428572 		Uiso   ? 		N 		-0.374313
N 1.0  		0.18744603471261992 		0.5812720470381245  0.22314285714285714 		Uiso   ? 		N 		-0.367998
N 1.0  		0.18744603471261992 		0.5812720470381245  0.7231428571428572 		Uiso   ? 		N 		-0.367998
N 1.0  		0.6874914667086092 		0.5812720470381245  0.22314285714285714 		Uiso   ? 		N 		-0.367998
N 1.0  		0.6874914667086092 		0.5812720470381245  0.7231428571428572 		Uiso   ? 		N 		-0.367998
N 1.0  		0.28760659265501987 		0.7814038234939218  0.22314285714285714 		Uiso   ? 		N 		-0.370641
N 1.0  		0.28760659265501987 		0.7814038234939218  0.7231428571428572 		Uiso   ? 		N 		-0.370641
N 1.0  		0.7876520246510091 		0.7814038234939218  0.22314285714285714 		Uiso   ? 		N 		-0.370641
N 1.0  		0.7876520246510091 		0.7814038234939218  0.7231428571428572 		Uiso   ? 		N 		-0.370641
N 1.0  		0.3875778111684172 		0.9813462605207164  0.22314285714285714 		Uiso   ? 		N 		-0.370102
N 1.0  		0.3875778111684172 		0.9813462605207164  0.7231428571428572 		Uiso   ? 		N 		-0.370102
N 1.0  		0.8876232431644062 		0.9813462605207164  0.22314285714285714 		Uiso   ? 		N 		-0.370102
N 1.0  		0.8876232431644062 		0.9813462605207164  0.7231428571428572 		Uiso   ? 		N 		-0.370102
N 1.0  		0.4510065198843038 		0.15809842321720977  0.22314285714285714 		Uiso   ? 		N 		-0.346827
N 1.0  		0.4510065198843038 		0.15809842321720977  0.7231428571428572 		Uiso   ? 		N 		-0.346827
N 1.0  		0.9510519518802929 		0.15809842321720977  0.22314285714285714 		Uiso   ? 		N 		-0.346827
N 1.0  		0.9510519518802929 		0.15809842321720977  0.7231428571428572 		Uiso   ? 		N 		-0.346827
N 1.0  		0.05093230640171187 		0.3580408602440044  0.22314285714285714 		Uiso   ? 		N 		-0.349902
N 1.0  		0.05093230640171187 		0.3580408602440044  0.7231428571428572 		Uiso   ? 		N 		-0.349902
N 1.0  		0.5509777383977011 		0.3580408602440044  0.22314285714285714 		Uiso   ? 		N 		-0.349902
N 1.0  		0.5509777383977011 		0.3580408602440044  0.7231428571428572 		Uiso   ? 		N 		-0.349902
N 1.0  		0.15109286434411182 		0.557983297270799  0.22314285714285714 		Uiso   ? 		N 		-0.350390
N 1.0  		0.15109286434411182 		0.557983297270799  0.7231428571428572 		Uiso   ? 		N 		-0.350390
N 1.0  		0.651138296340101 		0.557983297270799  0.22314285714285714 		Uiso   ? 		N 		-0.350390
N 1.0  		0.651138296340101 		0.557983297270799  0.7231428571428572 		Uiso   ? 		N 		-0.350390
N 1.0  		0.2510640828575091 		0.7581150737265961  0.22314285714285714 		Uiso   ? 		N 		-0.346597
N 1.0  		0.2510640828575091 		0.7581150737265961  0.7231428571428572 		Uiso   ? 		N 		-0.346597
N 1.0  		0.7511095148534984 		0.7581150737265961  0.22314285714285714 		Uiso   ? 		N 		-0.346597
N 1.0  		0.7511095148534984 		0.7581150737265961  0.7231428571428572 		Uiso   ? 		N 		-0.346597
N 1.0  		0.35103530137090644 		0.9580575107533909  0.22314285714285714 		Uiso   ? 		N 		-0.346916
N 1.0  		0.35103530137090644 		0.9580575107533909  0.7231428571428572 		Uiso   ? 		N 		-0.346916
N 1.0  		0.8510807333668956 		0.9580575107533909  0.22314285714285714 		Uiso   ? 		N 		-0.346916
N 1.0  		0.8510807333668956 		0.9580575107533909  0.7231428571428572 		Uiso   ? 		N 		-0.346916
N 1.0  		0.2078946930449058 		0.029726290353415487  0.22314285714285714 		Uiso   ? 		N 		-0.349317
N 1.0  		0.2078946930449058 		0.029726290353415487  0.7231428571428572 		Uiso   ? 		N 		-0.349317
N 1.0  		0.707940125040895 		0.029726290353415487  0.22314285714285714 		Uiso   ? 		N 		-0.349317
N 1.0  		0.707940125040895 		0.029726290353415487  0.7231428571428572 		Uiso   ? 		N 		-0.349317
N 1.0  		0.30786591155830306 		0.22966872738021013  0.22314285714285714 		Uiso   ? 		N 		-0.349359
N 1.0  		0.30786591155830306 		0.22966872738021013  0.7231428571428572 		Uiso   ? 		N 		-0.349359
N 1.0  		0.8079113435542924 		0.22966872738021013  0.22314285714285714 		Uiso   ? 		N 		-0.349359
N 1.0  		0.8079113435542924 		0.22966872738021013  0.7231428571428572 		Uiso   ? 		N 		-0.349359
N 1.0  		0.40783713007170036 		0.4298005038360074  0.22314285714285714 		Uiso   ? 		N 		-0.347764
N 1.0  		0.40783713007170036 		0.4298005038360074  0.7231428571428572 		Uiso   ? 		N 		-0.347764
N 1.0  		0.9078825620676896 		0.4298005038360074  0.22314285714285714 		Uiso   ? 		N 		-0.347764
N 1.0  		0.9078825620676896 		0.4298005038360074  0.7231428571428572 		Uiso   ? 		N 		-0.347764
N 1.0  		0.007762916589108465 		0.629742940862802  0.22314285714285714 		Uiso   ? 		N 		-0.352486
N 1.0  		0.007762916589108465 		0.629742940862802  0.7231428571428572 		Uiso   ? 		N 		-0.352486
N 1.0  		0.5078083485850977 		0.629742940862802  0.22314285714285714 		Uiso   ? 		N 		-0.352486
N 1.0  		0.5078083485850977 		0.629742940862802  0.7231428571428572 		Uiso   ? 		N 		-0.352486
N 1.0  		0.1079234745315084 		0.8296853778895965  0.22314285714285714 		Uiso   ? 		N 		-0.348430
N 1.0  		0.1079234745315084 		0.8296853778895965  0.7231428571428572 		Uiso   ? 		N 		-0.348430
N 1.0  		0.6079689065274977 		0.8296853778895965  0.22314285714285714 		Uiso   ? 		N 		-0.348430
N 1.0  		0.6079689065274977 		0.8296853778895965  0.7231428571428572 		Uiso   ? 		N 		-0.348430
N 1.0  		0.0367318492265134 		0.0664581395799289  0.22314285714285714 		Uiso   ? 		N 		-0.413207
N 1.0  		0.0367318492265134 		0.0664581395799289  0.7231428571428572 		Uiso   ? 		N 		-0.413207
N 1.0  		0.5367772812225026 		0.0664581395799289  0.22314285714285714 		Uiso   ? 		N 		-0.413207
N 1.0  		0.5367772812225026 		0.0664581395799289  0.7231428571428572 		Uiso   ? 		N 		-0.413207
N 1.0  		0.13670306773991067 		0.2665899160357261  0.22314285714285714 		Uiso   ? 		N 		-0.415952
N 1.0  		0.13670306773991067 		0.2665899160357261  0.7231428571428572 		Uiso   ? 		N 		-0.415952
N 1.0  		0.6367484997358999 		0.2665899160357261  0.22314285714285714 		Uiso   ? 		N 		-0.415952
N 1.0  		0.6367484997358999 		0.2665899160357261  0.7231428571428572 		Uiso   ? 		N 		-0.415952
N 1.0  		0.236674286253308 		0.4665323530625208  0.22314285714285714 		Uiso   ? 		N 		-0.417606
N 1.0  		0.236674286253308 		0.4665323530625208  0.7231428571428572 		Uiso   ? 		N 		-0.417606
N 1.0  		0.7367197182492973 		0.4665323530625208  0.22314285714285714 		Uiso   ? 		N 		-0.417606
N 1.0  		0.7367197182492973 		0.4665323530625208  0.7231428571428572 		Uiso   ? 		N 		-0.417606
N 1.0  		0.3366455047667053 		0.6664747900893154  0.22314285714285714 		Uiso   ? 		N 		-0.416922
N 1.0  		0.3366455047667053 		0.6664747900893154  0.7231428571428572 		Uiso   ? 		N 		-0.416922
N 1.0  		0.8366909367626945 		0.6664747900893154  0.22314285714285714 		Uiso   ? 		N 		-0.416922
N 1.0  		0.8366909367626945 		0.6664747900893154  0.7231428571428572 		Uiso   ? 		N 		-0.416922
N 1.0  		0.4366167232801026 		0.8664172271161099  0.22314285714285714 		Uiso   ? 		N 		-0.419298
N 1.0  		0.4366167232801026 		0.8664172271161099  0.7231428571428572 		Uiso   ? 		N 		-0.419298
N 1.0  		0.9366621552760919 		0.8664172271161099  0.22314285714285714 		Uiso   ? 		N 		-0.419298
N 1.0  		0.9366621552760919 		0.8664172271161099  0.7231428571428572 		Uiso   ? 		N 		-0.419298
N 1.0  		0.41370665237078247 		0.049606930398693364  0.22314285714285714 		Uiso   ? 		N 		-0.485485
N 1.0  		0.41370665237078247 		0.049606930398693364  0.7231428571428572 		Uiso   ? 		N 		-0.485485
N 1.0  		0.9137520843667716 		0.049606930398693364  0.22314285714285714 		Uiso   ? 		N 		-0.485485
N 1.0  		0.9137520843667716 		0.049606930398693364  0.7231428571428572 		Uiso   ? 		N 		-0.485485
N 1.0  		0.013821778317193173 		0.24973870685449062  0.22314285714285714 		Uiso   ? 		N 		-0.485816
N 1.0  		0.013821778317193173 		0.24973870685449062  0.7231428571428572 		Uiso   ? 		N 		-0.485816
N 1.0  		0.5138672103131824 		0.24973870685449062  0.22314285714285714 		Uiso   ? 		N 		-0.485816
N 1.0  		0.5138672103131824 		0.24973870685449062  0.7231428571428572 		Uiso   ? 		N 		-0.485816
N 1.0  		0.11379299683059046 		0.4496811438812853  0.22314285714285714 		Uiso   ? 		N 		-0.487114
N 1.0  		0.11379299683059046 		0.4496811438812853  0.7231428571428572 		Uiso   ? 		N 		-0.487114
N 1.0  		0.6138384288265797 		0.4496811438812853  0.22314285714285714 		Uiso   ? 		N 		-0.487114
N 1.0  		0.6138384288265797 		0.4496811438812853  0.7231428571428572 		Uiso   ? 		N 		-0.487114
N 1.0  		0.2137642153439878 		0.6496235809080799  0.22314285714285714 		Uiso   ? 		N 		-0.483946
N 1.0  		0.2137642153439878 		0.6496235809080799  0.7231428571428572 		Uiso   ? 		N 		-0.483946
N 1.0  		0.713809647339977 		0.6496235809080799  0.22314285714285714 		Uiso   ? 		N 		-0.483946
N 1.0  		0.713809647339977 		0.6496235809080799  0.7231428571428572 		Uiso   ? 		N 		-0.483946
N 1.0  		0.31373543385738506 		0.8495660179348745  0.22314285714285714 		Uiso   ? 		N 		-0.485177
N 1.0  		0.31373543385738506 		0.8495660179348745  0.7231428571428572 		Uiso   ? 		N 		-0.485177
N 1.0  		0.8137808658533743 		0.8495660179348745  0.22314285714285714 		Uiso   ? 		N 		-0.485177
N 1.0  		0.8137808658533743 		0.8495660179348745  0.7231428571428572 		Uiso   ? 		N 		-0.485177
N 1.0  		0.3697799048421685 		0.06910889158596595  0.22314285714285714 		Uiso   ? 		N 		-0.535725
N 1.0  		0.3697799048421685 		0.06910889158596595  0.7231428571428572 		Uiso   ? 		N 		-0.535725
N 1.0  		0.8698253368381578 		0.06910889158596595  0.22314285714285714 		Uiso   ? 		N 		-0.535725
N 1.0  		0.8698253368381578 		0.06910889158596595  0.7231428571428572 		Uiso   ? 		N 		-0.535725
N 1.0  		0.46975112335556574 		0.2690513286127606  0.22314285714285714 		Uiso   ? 		N 		-0.534439
N 1.0  		0.46975112335556574 		0.2690513286127606  0.7231428571428572 		Uiso   ? 		N 		-0.534439
N 1.0  		0.969796555351555 		0.2690513286127606  0.22314285714285714 		Uiso   ? 		N 		-0.534439
N 1.0  		0.969796555351555 		0.2690513286127606  0.7231428571428572 		Uiso   ? 		N 		-0.534439
N 1.0  		0.0698662493019765 		0.46899376563955514  0.22314285714285714 		Uiso   ? 		N 		-0.532905
N 1.0  		0.0698662493019765 		0.46899376563955514  0.7231428571428572 		Uiso   ? 		N 		-0.532905
N 1.0  		0.5699116812979657 		0.46899376563955514  0.22314285714285714 		Uiso   ? 		N 		-0.532905
N 1.0  		0.5699116812979657 		0.46899376563955514  0.7231428571428572 		Uiso   ? 		N 		-0.532905
N 1.0  		0.16983746781537382 		0.6691255420953525  0.22314285714285714 		Uiso   ? 		N 		-0.538333
N 1.0  		0.16983746781537382 		0.6691255420953525  0.7231428571428572 		Uiso   ? 		N 		-0.538333
N 1.0  		0.669882899811363 		0.6691255420953525  0.22314285714285714 		Uiso   ? 		N 		-0.538333
N 1.0  		0.669882899811363 		0.6691255420953525  0.7231428571428572 		Uiso   ? 		N 		-0.538333
N 1.0  		0.2698086863287711 		0.8690679791221471  0.22314285714285714 		Uiso   ? 		N 		-0.534369
N 1.0  		0.2698086863287711 		0.8690679791221471  0.7231428571428572 		Uiso   ? 		N 		-0.534369
N 1.0  		0.7698541183247604 		0.8690679791221471  0.22314285714285714 		Uiso   ? 		N 		-0.534369
N 1.0  		0.7698541183247604 		0.8690679791221471  0.7231428571428572 		Uiso   ? 		N 		-0.534369
N 1.0  		0.2866598955100067 		0.0664581395799289  0.22314285714285714 		Uiso   ? 		N 		-0.417059
N 1.0  		0.2866598955100067 		0.0664581395799289  0.7231428571428572 		Uiso   ? 		N 		-0.417059
N 1.0  		0.786705327505996 		0.0664581395799289  0.22314285714285714 		Uiso   ? 		N 		-0.417059
N 1.0  		0.786705327505996 		0.0664581395799289  0.7231428571428572 		Uiso   ? 		N 		-0.417059
N 1.0  		0.3868204534524067 		0.2665899160357261  0.22314285714285714 		Uiso   ? 		N 		-0.416121
N 1.0  		0.3868204534524067 		0.2665899160357261  0.7231428571428572 		Uiso   ? 		N 		-0.416121
N 1.0  		0.8868658854483958 		0.2665899160357261  0.22314285714285714 		Uiso   ? 		N 		-0.416121
N 1.0  		0.8868658854483958 		0.2665899160357261  0.7231428571428572 		Uiso   ? 		N 		-0.416121
N 1.0  		0.4867916719658039 		0.4665323530625208  0.22314285714285714 		Uiso   ? 		N 		-0.414011
N 1.0  		0.4867916719658039 		0.4665323530625208  0.7231428571428572 		Uiso   ? 		N 		-0.414011
N 1.0  		0.9868371039617931 		0.4665323530625208  0.22314285714285714 		Uiso   ? 		N 		-0.414011
N 1.0  		0.9868371039617931 		0.4665323530625208  0.7231428571428572 		Uiso   ? 		N 		-0.414011
N 1.0  		0.08671745848321202 		0.6664747900893154  0.22314285714285714 		Uiso   ? 		N 		-0.417085
N 1.0  		0.08671745848321202 		0.6664747900893154  0.7231428571428572 		Uiso   ? 		N 		-0.417085
N 1.0  		0.5867628904792013 		0.6664747900893154  0.22314285714285714 		Uiso   ? 		N 		-0.417085
N 1.0  		0.5867628904792013 		0.6664747900893154  0.7231428571428572 		Uiso   ? 		N 		-0.417085
N 1.0  		0.18668867699660932 		0.8666065665451127  0.22314285714285714 		Uiso   ? 		N 		-0.419863
N 1.0  		0.18668867699660932 		0.8666065665451127  0.7231428571428572 		Uiso   ? 		N 		-0.419863
N 1.0  		0.6867341089925986 		0.8666065665451127  0.22314285714285714 		Uiso   ? 		N 		-0.419863
N 1.0  		0.6867341089925986 		0.8666065665451127  0.7231428571428572 		Uiso   ? 		N 		-0.419863
N 1.0  		0.23762098339832124 		0.18138717298453527  0.22314285714285714 		Uiso   ? 		N 		-0.373923
N 1.0  		0.23762098339832124 		0.18138717298453527  0.7231428571428572 		Uiso   ? 		N 		-0.373923
N 1.0  		0.7376664153943104 		0.18138717298453527  0.22314285714285714 		Uiso   ? 		N 		-0.373923
N 1.0  		0.7376664153943104 		0.18138717298453527  0.7231428571428572 		Uiso   ? 		N 		-0.373923
N 1.0  		0.33759220191171857 		0.38132961001132987  0.22314285714285714 		Uiso   ? 		N 		-0.369065
N 1.0  		0.33759220191171857 		0.38132961001132987  0.7231428571428572 		Uiso   ? 		N 		-0.369065
N 1.0  		0.8376376339077078 		0.38132961001132987  0.22314285714285714 		Uiso   ? 		N 		-0.369065
N 1.0  		0.8376376339077078 		0.38132961001132987  0.7231428571428572 		Uiso   ? 		N 		-0.369065
N 1.0  		0.4375634204251158 		0.5814613864671272  0.22314285714285714 		Uiso   ? 		N 		-0.376457
N 1.0  		0.4375634204251158 		0.5814613864671272  0.7231428571428572 		Uiso   ? 		N 		-0.376457
N 1.0  		0.937608852421105 		0.5814613864671272  0.22314285714285714 		Uiso   ? 		N 		-0.376457
N 1.0  		0.937608852421105 		0.5814613864671272  0.7231428571428572 		Uiso   ? 		N 		-0.376457
N 1.0  		0.037678546371526594 		0.7814038234939218  0.22314285714285714 		Uiso   ? 		N 		-0.370645
N 1.0  		0.037678546371526594 		0.7814038234939218  0.7231428571428572 		Uiso   ? 		N 		-0.370645
N 1.0  		0.5377239783675158 		0.7814038234939218  0.22314285714285714 		Uiso   ? 		N 		-0.370645
N 1.0  		0.5377239783675158 		0.7814038234939218  0.7231428571428572 		Uiso   ? 		N 		-0.370645
N 1.0  		0.1376497648849239 		0.9813462605207164  0.22314285714285714 		Uiso   ? 		N 		-0.370977
N 1.0  		0.1376497648849239 		0.9813462605207164  0.7231428571428572 		Uiso   ? 		N 		-0.370977
N 1.0  		0.637695196880913 		0.9813462605207164  0.22314285714285714 		Uiso   ? 		N 		-0.370977
N 1.0  		0.637695196880913 		0.9813462605207164  0.7231428571428572 		Uiso   ? 		N 		-0.370977
N 1.0  		0.16377860608728914 		0.049606930398693364  0.22314285714285714 		Uiso   ? 		N 		-0.488160
N 1.0  		0.16377860608728914 		0.049606930398693364  0.7231428571428572 		Uiso   ? 		N 		-0.488160
N 1.0  		0.6638240380832783 		0.049606930398693364  0.22314285714285714 		Uiso   ? 		N 		-0.488160
N 1.0  		0.6638240380832783 		0.049606930398693364  0.7231428571428572 		Uiso   ? 		N 		-0.488160
N 1.0  		0.2639391640296891 		0.24973870685449062  0.22314285714285714 		Uiso   ? 		N 		-0.481780
N 1.0  		0.2639391640296891 		0.24973870685449062  0.7231428571428572 		Uiso   ? 		N 		-0.481780
N 1.0  		0.7639845960256784 		0.24973870685449062  0.22314285714285714 		Uiso   ? 		N 		-0.481780
N 1.0  		0.7639845960256784 		0.24973870685449062  0.7231428571428572 		Uiso   ? 		N 		-0.481780
N 1.0  		0.3639103825430864 		0.4496811438812853  0.22314285714285714 		Uiso   ? 		N 		-0.487350
N 1.0  		0.3639103825430864 		0.4496811438812853  0.7231428571428572 		Uiso   ? 		N 		-0.487350
N 1.0  		0.8639558145390756 		0.4496811438812853  0.22314285714285714 		Uiso   ? 		N 		-0.487350
N 1.0  		0.8639558145390756 		0.4496811438812853  0.7231428571428572 		Uiso   ? 		N 		-0.487350
N 1.0  		0.46388160105648374 		0.6496235809080799  0.22314285714285714 		Uiso   ? 		N 		-0.489268
N 1.0  		0.46388160105648374 		0.6496235809080799  0.7231428571428572 		Uiso   ? 		N 		-0.489268
N 1.0  		0.963927033052473 		0.6496235809080799  0.22314285714285714 		Uiso   ? 		N 		-0.489268
N 1.0  		0.963927033052473 		0.6496235809080799  0.7231428571428572 		Uiso   ? 		N 		-0.489268
N 1.0  		0.06380738757389179 		0.8497553573638772  0.22314285714285714 		Uiso   ? 		N 		-0.486625
N 1.0  		0.06380738757389179 		0.8497553573638772  0.7231428571428572 		Uiso   ? 		N 		-0.486625
N 1.0  		0.5638528195698811 		0.8497553573638772  0.22314285714285714 		Uiso   ? 		N 		-0.486625
N 1.0  		0.5638528195698811 		0.8497553573638772  0.7231428571428572 		Uiso   ? 		N 		-0.486625
N 1.0  		0.12818279343479164 		0.024803465199346682  0.22314285714285714 		Uiso   ? 		N 		-0.277616
N 1.0  		0.12818279343479164 		0.024803465199346682  0.7231428571428572 		Uiso   ? 		N 		-0.277616
N 1.0  		0.6282282254307808 		0.024803465199346682  0.22314285714285714 		Uiso   ? 		N 		-0.277616
N 1.0  		0.6282282254307808 		0.024803465199346682  0.7231428571428572 		Uiso   ? 		N 		-0.277616
N 1.0  		0.4544146296063514 		0.07270634073701623  0.22314285714285714 		Uiso   ? 		N 		-0.373804
N 1.0  		0.4544146296063514 		0.07270634073701623  0.7231428571428572 		Uiso   ? 		N 		-0.373804
N 1.0  		0.9544600616023406 		0.07270634073701623  0.22314285714285714 		Uiso   ? 		N 		-0.373804
N 1.0  		0.9544600616023406 		0.07270634073701623  0.7231428571428572 		Uiso   ? 		N 		-0.373804
N 1.0  		0.22815401194818896 		0.22474590222614133  0.22314285714285714 		Uiso   ? 		N 		-0.275731
N 1.0  		0.22815401194818896 		0.22474590222614133  0.7231428571428572 		Uiso   ? 		N 		-0.275731
N 1.0  		0.7281994439441781 		0.22474590222614133  0.22314285714285714 		Uiso   ? 		N 		-0.275731
N 1.0  		0.7281994439441781 		0.22474590222614133  0.7231428571428572 		Uiso   ? 		N 		-0.275731
N 1.0  		0.054529755552762155 		0.2728381171928135  0.22314285714285714 		Uiso   ? 		N 		-0.374121
N 1.0  		0.054529755552762155 		0.2728381171928135  0.7231428571428572 		Uiso   ? 		N 		-0.374121
N 1.0  		0.5545751875487513 		0.2728381171928135  0.22314285714285714 		Uiso   ? 		N 		-0.374121
N 1.0  		0.5545751875487513 		0.2728381171928135  0.7231428571428572 		Uiso   ? 		N 		-0.374121
N 1.0  		0.32812523046158626 		0.4248776786819386  0.22314285714285714 		Uiso   ? 		N 		-0.276764
N 1.0  		0.32812523046158626 		0.4248776786819386  0.7231428571428572 		Uiso   ? 		N 		-0.276764
N 1.0  		0.8281706624575754 		0.4248776786819386  0.22314285714285714 		Uiso   ? 		N 		-0.276764
N 1.0  		0.8281706624575754 		0.4248776786819386  0.7231428571428572 		Uiso   ? 		N 		-0.276764
N 1.0  		0.15450097406615945 		0.4727805542196081  0.22314285714285714 		Uiso   ? 		N 		-0.371356
N 1.0  		0.15450097406615945 		0.4727805542196081  0.7231428571428572 		Uiso   ? 		N 		-0.371356
N 1.0  		0.6545464060621486 		0.4727805542196081  0.22314285714285714 		Uiso   ? 		N 		-0.371356
N 1.0  		0.6545464060621486 		0.4727805542196081  0.7231428571428572 		Uiso   ? 		N 		-0.371356
N 1.0  		0.4280964489749835 		0.6248201157087332  0.22314285714285714 		Uiso   ? 		N 		-0.277657
N 1.0  		0.4280964489749835 		0.6248201157087332  0.7231428571428572 		Uiso   ? 		N 		-0.277657
N 1.0  		0.9281418809709728 		0.6248201157087332  0.22314285714285714 		Uiso   ? 		N 		-0.277657
N 1.0  		0.9281418809709728 		0.6248201157087332  0.7231428571428572 		Uiso   ? 		N 		-0.277657
N 1.0  		0.2544721925795568 		0.6727229912464028  0.22314285714285714 		Uiso   ? 		N 		-0.372561
N 1.0  		0.2544721925795568 		0.6727229912464028  0.7231428571428572 		Uiso   ? 		N 		-0.372561
N 1.0  		0.7545176245755459 		0.6727229912464028  0.22314285714285714 		Uiso   ? 		N 		-0.372561
N 1.0  		0.7545176245755459 		0.6727229912464028  0.7231428571428572 		Uiso   ? 		N 		-0.372561
N 1.0  		0.028211574921394263 		0.8247625527355278  0.22314285714285714 		Uiso   ? 		N 		-0.278514
N 1.0  		0.028211574921394263 		0.8247625527355278  0.7231428571428572 		Uiso   ? 		N 		-0.278514
N 1.0  		0.5282570069173835 		0.8247625527355278  0.22314285714285714 		Uiso   ? 		N 		-0.278514
N 1.0  		0.5282570069173835 		0.8247625527355278  0.7231428571428572 		Uiso   ? 		N 		-0.278514
N 1.0  		0.3544434110929541 		0.8728547677022  0.22314285714285714 		Uiso   ? 		N 		-0.376514
N 1.0  		0.3544434110929541 		0.8728547677022  0.7231428571428572 		Uiso   ? 		N 		-0.376514
N 1.0  		0.8544888430889432 		0.8728547677022  0.22314285714285714 		Uiso   ? 		N 		-0.376514
N 1.0  		0.8544888430889432 		0.8728547677022  0.7231428571428572 		Uiso   ? 		N 		-0.376514
N 1.0  		0.3410003116337662 		0.00037867885800529287  0.22314285714285714 		Uiso   ? 		N 		-0.459375
N 1.0  		0.3410003116337662 		0.00037867885800529287  0.7231428571428572 		Uiso   ? 		N 		-0.459375
N 1.0  		0.8410457436297555 		0.00037867885800529287  0.22314285714285714 		Uiso   ? 		N 		-0.459375
N 1.0  		0.8410457436297555 		0.00037867885800529287  0.7231428571428572 		Uiso   ? 		N 		-0.459375
N 1.0  		0.44097153014716356 		0.20032111588479992  0.22314285714285714 		Uiso   ? 		N 		-0.457863
N 1.0  		0.44097153014716356 		0.20032111588479992  0.7231428571428572 		Uiso   ? 		N 		-0.457863
N 1.0  		0.9410169621431527 		0.20032111588479992  0.22314285714285714 		Uiso   ? 		N 		-0.457863
N 1.0  		0.9410169621431527 		0.20032111588479992  0.7231428571428572 		Uiso   ? 		N 		-0.457863
N 1.0  		0.041086656093574245 		0.4002635529115945  0.22314285714285714 		Uiso   ? 		N 		-0.457539
N 1.0  		0.041086656093574245 		0.4002635529115945  0.7231428571428572 		Uiso   ? 		N 		-0.457539
N 1.0  		0.5411320880895635 		0.4002635529115945  0.22314285714285714 		Uiso   ? 		N 		-0.457539
N 1.0  		0.5411320880895635 		0.4002635529115945  0.7231428571428572 		Uiso   ? 		N 		-0.457539
N 1.0  		0.14105787460697156 		0.6003953293673918  0.22314285714285714 		Uiso   ? 		N 		-0.456982
N 1.0  		0.14105787460697156 		0.6003953293673918  0.7231428571428572 		Uiso   ? 		N 		-0.456982
N 1.0  		0.6411033066029608 		0.6003953293673918  0.22314285714285714 		Uiso   ? 		N 		-0.456982
N 1.0  		0.6411033066029608 		0.6003953293673918  0.7231428571428572 		Uiso   ? 		N 		-0.456982
N 1.0  		0.24102909312036883 		0.8003377663941865  0.22314285714285714 		Uiso   ? 		N 		-0.457511
N 1.0  		0.24102909312036883 		0.8003377663941865  0.7231428571428572 		Uiso   ? 		N 		-0.457511
N 1.0  		0.7410745251163581 		0.8003377663941865  0.22314285714285714 		Uiso   ? 		N 		-0.457511
N 1.0  		0.7410745251163581 		0.8003377663941865  0.7231428571428572 		Uiso   ? 		N 		-0.457511
N 1.0  		0.33304805561565504 		0.04335872924160603  0.22314285714285714 		Uiso   ? 		N 		-0.417879
N 1.0  		0.33304805561565504 		0.04335872924160603  0.7231428571428572 		Uiso   ? 		N 		-0.417879
N 1.0  		0.8330934876116444 		0.04335872924160603  0.22314285714285714 		Uiso   ? 		N 		-0.417879
N 1.0  		0.8330934876116444 		0.04335872924160603  0.7231428571428572 		Uiso   ? 		N 		-0.417879
N 1.0  		0.24481588170042182 		0.09145094420827822  0.22314285714285714 		Uiso   ? 		N 		-0.274869
N 1.0  		0.24481588170042182 		0.09145094420827822  0.7231428571428572 		Uiso   ? 		N 		-0.274869
N 1.0  		0.7448613136964111 		0.09145094420827822  0.22314285714285714 		Uiso   ? 		N 		-0.274869
N 1.0  		0.7448613136964111 		0.09145094420827822  0.7231428571428572 		Uiso   ? 		N 		-0.274869
N 1.0  		0.43301927412905233 		0.24330116626840065  0.22314285714285714 		Uiso   ? 		N 		-0.419225
N 1.0  		0.43301927412905233 		0.24330116626840065  0.7231428571428572 		Uiso   ? 		N 		-0.419225
N 1.0  		0.9330647061250416 		0.24330116626840065  0.22314285714285714 		Uiso   ? 		N 		-0.419225
N 1.0  		0.9330647061250416 		0.24330116626840065  0.7231428571428572 		Uiso   ? 		N 		-0.419225
N 1.0  		0.3449764396428218 		0.29139338123507286  0.22314285714285714 		Uiso   ? 		N 		-0.273816
N 1.0  		0.3449764396428218 		0.29139338123507286  0.7231428571428572 		Uiso   ? 		N 		-0.273816
N 1.0  		0.845021871638811 		0.29139338123507286  0.22314285714285714 		Uiso   ? 		N 		-0.273816
N 1.0  		0.845021871638811 		0.29139338123507286  0.7231428571428572 		Uiso   ? 		N 		-0.273816
N 1.0  		0.033134400075463095 		0.4432436032951953  0.22314285714285714 		Uiso   ? 		N 		-0.420232
N 1.0  		0.033134400075463095 		0.4432436032951953  0.7231428571428572 		Uiso   ? 		N 		-0.420232
N 1.0  		0.5331798320714523 		0.4432436032951953  0.22314285714285714 		Uiso   ? 		N 		-0.420232
N 1.0  		0.5331798320714523 		0.4432436032951953  0.7231428571428572 		Uiso   ? 		N 		-0.420232
N 1.0  		0.44494765815621906 		0.49152515769087013  0.22314285714285714 		Uiso   ? 		N 		-0.280506
N 1.0  		0.44494765815621906 		0.49152515769087013  0.7231428571428572 		Uiso   ? 		N 		-0.280506
N 1.0  		0.9449930901522082 		0.49152515769087013  0.22314285714285714 		Uiso   ? 		N 		-0.280506
N 1.0  		0.9449930901522082 		0.49152515769087013  0.7231428571428572 		Uiso   ? 		N 		-0.280506
N 1.0  		0.13310561858886039 		0.6433753797509926  0.22314285714285714 		Uiso   ? 		N 		-0.419154
N 1.0  		0.13310561858886039 		0.6433753797509926  0.7231428571428572 		Uiso   ? 		N 		-0.419154
N 1.0  		0.6331510505848497 		0.6433753797509926  0.22314285714285714 		Uiso   ? 		N 		-0.419154
N 1.0  		0.6331510505848497 		0.6433753797509926  0.7231428571428572 		Uiso   ? 		N 		-0.419154
N 1.0  		0.04487344467362716 		0.6914675947176647  0.22314285714285714 		Uiso   ? 		N 		-0.277208
N 1.0  		0.04487344467362716 		0.6914675947176647  0.7231428571428572 		Uiso   ? 		N 		-0.277208
N 1.0  		0.5449188766696165 		0.6914675947176647  0.22314285714285714 		Uiso   ? 		N 		-0.277208
N 1.0  		0.5449188766696165 		0.6914675947176647  0.7231428571428572 		Uiso   ? 		N 		-0.277208
N 1.0  		0.2330768371022577 		0.8433178167777872  0.22314285714285714 		Uiso   ? 		N 		-0.418945
N 1.0  		0.2330768371022577 		0.8433178167777872  0.7231428571428572 		Uiso   ? 		N 		-0.418945
N 1.0  		0.733122269098247 		0.8433178167777872  0.22314285714285714 		Uiso   ? 		N 		-0.418945
N 1.0  		0.733122269098247 		0.8433178167777872  0.7231428571428572 		Uiso   ? 		N 		-0.418945
N 1.0  		0.14484466318702446 		0.8914100317444594  0.22314285714285714 		Uiso   ? 		N 		-0.275671
N 1.0  		0.14484466318702446 		0.8914100317444594  0.7231428571428572 		Uiso   ? 		N 		-0.275671
N 1.0  		0.6448900951830138 		0.8914100317444594  0.22314285714285714 		Uiso   ? 		N 		-0.275671
N 1.0  		0.6448900951830138 		0.8914100317444594  0.7231428571428572 		Uiso   ? 		N 		-0.275671
N 1.0  		0.4949332674129177 		0.09145094420827822  0.22314285714285714 		Uiso   ? 		N 		-0.274534
N 1.0  		0.4949332674129177 		0.09145094420827822  0.7231428571428572 		Uiso   ? 		N 		-0.274534
N 1.0  		0.9949786994089069 		0.09145094420827822  0.22314285714285714 		Uiso   ? 		N 		-0.274534
N 1.0  		0.9949786994089069 		0.09145094420827822  0.7231428571428572 		Uiso   ? 		N 		-0.274534
N 1.0  		0.09485905393032584 		0.29139338123507286  0.22314285714285714 		Uiso   ? 		N 		-0.277541
N 1.0  		0.09485905393032584 		0.29139338123507286  0.7231428571428572 		Uiso   ? 		N 		-0.277541
N 1.0  		0.5949044859263151 		0.29139338123507286  0.22314285714285714 		Uiso   ? 		N 		-0.277541
N 1.0  		0.5949044859263151 		0.29139338123507286  0.7231428571428572 		Uiso   ? 		N 		-0.277541
N 1.0  		0.1948302724437231 		0.4913358182618675  0.22314285714285714 		Uiso   ? 		N 		-0.277722
N 1.0  		0.1948302724437231 		0.4913358182618675  0.7231428571428572 		Uiso   ? 		N 		-0.277722
N 1.0  		0.6948757044397124 		0.4913358182618675  0.22314285714285714 		Uiso   ? 		N 		-0.277722
N 1.0  		0.6948757044397124 		0.4913358182618675  0.7231428571428572 		Uiso   ? 		N 		-0.277722
N 1.0  		0.29480149095712044 		0.691278255288662  0.22314285714285714 		Uiso   ? 		N 		-0.272098
N 1.0  		0.29480149095712044 		0.691278255288662  0.7231428571428572 		Uiso   ? 		N 		-0.272098
N 1.0  		0.7948469229531098 		0.691278255288662  0.22314285714285714 		Uiso   ? 		N 		-0.272098
N 1.0  		0.7948469229531098 		0.691278255288662  0.7231428571428572 		Uiso   ? 		N 		-0.272098
N 1.0  		0.39477270947051774 		0.8914100317444594  0.22314285714285714 		Uiso   ? 		N 		-0.276090
N 1.0  		0.39477270947051774 		0.8914100317444594  0.7231428571428572 		Uiso   ? 		N 		-0.276090
N 1.0  		0.894818141466507 		0.8914100317444594  0.22314285714285714 		Uiso   ? 		N 		-0.276090
N 1.0  		0.894818141466507 		0.8914100317444594  0.7231428571428572 		Uiso   ? 		N 		-0.276090
N 1.0  		0.3781108397182849 		0.024803465199346682  0.22314285714285714 		Uiso   ? 		N 		-0.278130
N 1.0  		0.3781108397182849 		0.024803465199346682  0.7231428571428572 		Uiso   ? 		N 		-0.278130
N 1.0  		0.8781562717142741 		0.024803465199346682  0.22314285714285714 		Uiso   ? 		N 		-0.278130
N 1.0  		0.8781562717142741 		0.024803465199346682  0.7231428571428572 		Uiso   ? 		N 		-0.278130
N 1.0  		0.4780820582316822 		0.22474590222614133  0.22314285714285714 		Uiso   ? 		N 		-0.278062
N 1.0  		0.4780820582316822 		0.22474590222614133  0.7231428571428572 		Uiso   ? 		N 		-0.278062
N 1.0  		0.9781274902276715 		0.22474590222614133  0.22314285714285714 		Uiso   ? 		N 		-0.278062
N 1.0  		0.9781274902276715 		0.22474590222614133  0.7231428571428572 		Uiso   ? 		N 		-0.278062
N 1.0  		0.07819718417809295 		0.4246883392529359  0.22314285714285714 		Uiso   ? 		N 		-0.276336
N 1.0  		0.07819718417809295 		0.4246883392529359  0.7231428571428572 		Uiso   ? 		N 		-0.276336
N 1.0  		0.5782426161740821 		0.4246883392529359  0.22314285714285714 		Uiso   ? 		N 		-0.276336
N 1.0  		0.5782426161740821 		0.4246883392529359  0.7231428571428572 		Uiso   ? 		N 		-0.276336
N 1.0  		0.17816840269149026 		0.6248201157087332  0.22314285714285714 		Uiso   ? 		N 		-0.278164
N 1.0  		0.17816840269149026 		0.6248201157087332  0.7231428571428572 		Uiso   ? 		N 		-0.278164
N 1.0  		0.6782138346874794 		0.6248201157087332  0.22314285714285714 		Uiso   ? 		N 		-0.278164
N 1.0  		0.6782138346874794 		0.6248201157087332  0.7231428571428572 		Uiso   ? 		N 		-0.278164
N 1.0  		0.27813962120488755 		0.8247625527355278  0.22314285714285714 		Uiso   ? 		N 		-0.277208
N 1.0  		0.27813962120488755 		0.8247625527355278  0.7231428571428572 		Uiso   ? 		N 		-0.277208
N 1.0  		0.7781850532008768 		0.8247625527355278  0.22314285714285714 		Uiso   ? 		N 		-0.277208
N 1.0  		0.7781850532008768 		0.8247625527355278  0.7231428571428572 		Uiso   ? 		N 		-0.277208
N 1.0  		0.45157453817131166 		0.11568639112061696  0.22314285714285714 		Uiso   ? 		N 		-0.424398
N 1.0  		0.45157453817131166 		0.11568639112061696  0.7231428571428572 		Uiso   ? 		N 		-0.424398
N 1.0  		0.9516199701673009 		0.11568639112061696  0.22314285714285714 		Uiso   ? 		N 		-0.424398
N 1.0  		0.9516199701673009 		0.11568639112061696  0.7231428571428572 		Uiso   ? 		N 		-0.424398
N 1.0  		0.05168966411772245 		0.31581816757641423  0.22314285714285714 		Uiso   ? 		N 		-0.428516
N 1.0  		0.05168966411772245 		0.31581816757641423  0.7231428571428572 		Uiso   ? 		N 		-0.428516
N 1.0  		0.5517350961137117 		0.31581816757641423  0.22314285714285714 		Uiso   ? 		N 		-0.428516
N 1.0  		0.5517350961137117 		0.31581816757641423  0.7231428571428572 		Uiso   ? 		N 		-0.428516
N 1.0  		0.15166088263111976 		0.5157606046032089  0.22314285714285714 		Uiso   ? 		N 		-0.427836
N 1.0  		0.15166088263111976 		0.5157606046032089  0.7231428571428572 		Uiso   ? 		N 		-0.427836
N 1.0  		0.651706314627109 		0.5157606046032089  0.22314285714285714 		Uiso   ? 		N 		-0.427836
N 1.0  		0.651706314627109 		0.5157606046032089  0.7231428571428572 		Uiso   ? 		N 		-0.427836
N 1.0  		0.251632101144517 		0.7157030416300034  0.22314285714285714 		Uiso   ? 		N 		-0.426534
N 1.0  		0.251632101144517 		0.7157030416300034  0.7231428571428572 		Uiso   ? 		N 		-0.426534
N 1.0  		0.7516775331405063 		0.7157030416300034  0.22314285714285714 		Uiso   ? 		N 		-0.426534
N 1.0  		0.7516775331405063 		0.7157030416300034  0.7231428571428572 		Uiso   ? 		N 		-0.426534
N 1.0  		0.35160331965791436 		0.9158348180858007  0.22314285714285714 		Uiso   ? 		N 		-0.428072
N 1.0  		0.35160331965791436 		0.9158348180858007  0.7231428571428572 		Uiso   ? 		N 		-0.428072
N 1.0  		0.8516487516539035 		0.9158348180858007  0.22314285714285714 		Uiso   ? 		N 		-0.428072
N 1.0  		0.8516487516539035 		0.9158348180858007  0.7231428571428572 		Uiso   ? 		N 		-0.428072
N 1.0  		0.49341855198089657 		0.13480967344988426  0.22314285714285714 		Uiso   ? 		N 		-0.483683
N 1.0  		0.49341855198089657 		0.13480967344988426  0.7231428571428572 		Uiso   ? 		N 		-0.483683
N 1.0  		0.9934639839768857 		0.13480967344988426  0.22314285714285714 		Uiso   ? 		N 		-0.483683
N 1.0  		0.9934639839768857 		0.13480967344988426  0.7231428571428572 		Uiso   ? 		N 		-0.483683
N 1.0  		0.09334433849830467 		0.33475211047667885  0.22314285714285714 		Uiso   ? 		N 		-0.491795
N 1.0  		0.09334433849830467 		0.33475211047667885  0.7231428571428572 		Uiso   ? 		N 		-0.491795
N 1.0  		0.5933897704942939 		0.33475211047667885  0.22314285714285714 		Uiso   ? 		N 		-0.491795
N 1.0  		0.5933897704942939 		0.33475211047667885  0.7231428571428572 		Uiso   ? 		N 		-0.491795
N 1.0  		0.19331555701170194 		0.5348838869324761  0.22314285714285714 		Uiso   ? 		N 		-0.485139
N 1.0  		0.19331555701170194 		0.5348838869324761  0.7231428571428572 		Uiso   ? 		N 		-0.485139
N 1.0  		0.6933609890076912 		0.5348838869324761  0.22314285714285714 		Uiso   ? 		N 		-0.485139
N 1.0  		0.6933609890076912 		0.5348838869324761  0.7231428571428572 		Uiso   ? 		N 		-0.485139
N 1.0  		0.29328677552509924 		0.7348263239592707  0.22314285714285714 		Uiso   ? 		N 		-0.484111
N 1.0  		0.29328677552509924 		0.7348263239592707  0.7231428571428572 		Uiso   ? 		N 		-0.484111
N 1.0  		0.7933322075210886 		0.7348263239592707  0.22314285714285714 		Uiso   ? 		N 		-0.484111
N 1.0  		0.7933322075210886 		0.7348263239592707  0.7231428571428572 		Uiso   ? 		N 		-0.484111
N 1.0  		0.39325799403849654 		0.9347687609860654  0.22314285714285714 		Uiso   ? 		N 		-0.485723
N 1.0  		0.39325799403849654 		0.9347687609860654  0.7231428571428572 		Uiso   ? 		N 		-0.485723
N 1.0  		0.8933034260344858 		0.9347687609860654  0.22314285714285714 		Uiso   ? 		N 		-0.485723
N 1.0  		0.8933034260344858 		0.9347687609860654  0.7231428571428572 		Uiso   ? 		N 		-0.485723
N 1.0  		0.24765597313546153 		0.04714551782165896  0.22314285714285714 		Uiso   ? 		N 		-0.455649
N 1.0  		0.24765597313546153 		0.04714551782165896  0.7231428571428572 		Uiso   ? 		N 		-0.455649
N 1.0  		0.7477014051314507 		0.04714551782165896  0.22314285714285714 		Uiso   ? 		N 		-0.455649
N 1.0  		0.7477014051314507 		0.04714551782165896  0.7231428571428572 		Uiso   ? 		N 		-0.455649
N 1.0  		0.34762719164885886 		0.24708795484845356  0.22314285714285714 		Uiso   ? 		N 		-0.453245
N 1.0  		0.34762719164885886 		0.24708795484845356  0.7231428571428572 		Uiso   ? 		N 		-0.453245
N 1.0  		0.8476726236448481 		0.24708795484845356  0.22314285714285714 		Uiso   ? 		N 		-0.453245
N 1.0  		0.8476726236448481 		0.24708795484845356  0.7231428571428572 		Uiso   ? 		N 		-0.453245
N 1.0  		0.4475984101622561 		0.44721973130425086  0.22314285714285714 		Uiso   ? 		N 		-0.458403
N 1.0  		0.4475984101622561 		0.44721973130425086  0.7231428571428572 		Uiso   ? 		N 		-0.458403
N 1.0  		0.9476438421582454 		0.44721973130425086  0.22314285714285714 		Uiso   ? 		N 		-0.458403
N 1.0  		0.9476438421582454 		0.44721973130425086  0.7231428571428572 		Uiso   ? 		N 		-0.458403
N 1.0  		0.04752419667966421 		0.6471621683310455  0.22314285714285714 		Uiso   ? 		N 		-0.459672
N 1.0  		0.04752419667966421 		0.6471621683310455  0.7231428571428572 		Uiso   ? 		N 		-0.459672
N 1.0  		0.5475696286756534 		0.6471621683310455  0.22314285714285714 		Uiso   ? 		N 		-0.459672
N 1.0  		0.5475696286756534 		0.6471621683310455  0.7231428571428572 		Uiso   ? 		N 		-0.459672
N 1.0  		0.14768475462206415 		0.8471046053578402  0.22314285714285714 		Uiso   ? 		N 		-0.457069
N 1.0  		0.14768475462206415 		0.8471046053578402  0.7231428571428572 		Uiso   ? 		N 		-0.457069
N 1.0  		0.6477301866180534 		0.8471046053578402  0.22314285714285714 		Uiso   ? 		N 		-0.457069
N 1.0  		0.6477301866180534 		0.8471046053578402  0.7231428571428572 		Uiso   ? 		N 		-0.457069
N 1.0  		0.2434905056974033 		0.13499901287888688  0.22314285714285714 		Uiso   ? 		N 		-0.483578
N 1.0  		0.2434905056974033 		0.13499901287888688  0.7231428571428572 		Uiso   ? 		N 		-0.483578
N 1.0  		0.7435359376933925 		0.13499901287888688  0.22314285714285714 		Uiso   ? 		N 		-0.483578
N 1.0  		0.7435359376933925 		0.13499901287888688  0.7231428571428572 		Uiso   ? 		N 		-0.483578
N 1.0  		0.3434617242108006 		0.3349414499056815  0.22314285714285714 		Uiso   ? 		N 		-0.482077
N 1.0  		0.3434617242108006 		0.3349414499056815  0.7231428571428572 		Uiso   ? 		N 		-0.482077
N 1.0  		0.8435071562067898 		0.3349414499056815  0.22314285714285714 		Uiso   ? 		N 		-0.482077
N 1.0  		0.8435071562067898 		0.3349414499056815  0.7231428571428572 		Uiso   ? 		N 		-0.482077
N 1.0  		0.44343294272419786 		0.5348838869324761  0.22314285714285714 		Uiso   ? 		N 		-0.492315
N 1.0  		0.44343294272419786 		0.5348838869324761  0.7231428571428572 		Uiso   ? 		N 		-0.492315
N 1.0  		0.943478374720187 		0.5348838869324761  0.22314285714285714 		Uiso   ? 		N 		-0.492315
N 1.0  		0.943478374720187 		0.5348838869324761  0.7231428571428572 		Uiso   ? 		N 		-0.492315
N 1.0  		0.04354806867060864 		0.7350156633882734  0.22314285714285714 		Uiso   ? 		N 		-0.487042
N 1.0  		0.04354806867060864 		0.7350156633882734  0.7231428571428572 		Uiso   ? 		N 		-0.487042
N 1.0  		0.5435935006665978 		0.7350156633882734  0.22314285714285714 		Uiso   ? 		N 		-0.487042
N 1.0  		0.5435935006665978 		0.7350156633882734  0.7231428571428572 		Uiso   ? 		N 		-0.487042
N 1.0  		0.14351928718400594 		0.934958100415068  0.22314285714285714 		Uiso   ? 		N 		-0.485946
N 1.0  		0.14351928718400594 		0.934958100415068  0.7231428571428572 		Uiso   ? 		N 		-0.485946
N 1.0  		0.6435647191799951 		0.934958100415068  0.22314285714285714 		Uiso   ? 		N 		-0.485946
N 1.0  		0.6435647191799951 		0.934958100415068  0.7231428571428572 		Uiso   ? 		N 		-0.485946
N 1.0  		0.20448658332285816 		0.07289568016601887  0.22314285714285714 		Uiso   ? 		N 		-0.371812
N 1.0  		0.20448658332285816 		0.07289568016601887  0.7231428571428572 		Uiso   ? 		N 		-0.371812
N 1.0  		0.7045320153188473 		0.07289568016601887  0.22314285714285714 		Uiso   ? 		N 		-0.371812
N 1.0  		0.7045320153188473 		0.07289568016601887  0.7231428571428572 		Uiso   ? 		N 		-0.371812
N 1.0  		0.3044578018362555 		0.2728381171928135  0.22314285714285714 		Uiso   ? 		N 		-0.370767
N 1.0  		0.3044578018362555 		0.2728381171928135  0.7231428571428572 		Uiso   ? 		N 		-0.370767
N 1.0  		0.8045032338322445 		0.2728381171928135  0.22314285714285714 		Uiso   ? 		N 		-0.370767
N 1.0  		0.8045032338322445 		0.2728381171928135  0.7231428571428572 		Uiso   ? 		N 		-0.370767
N 1.0  		0.4044290203496527 		0.4729698936486108  0.22314285714285714 		Uiso   ? 		N 		-0.372576
N 1.0  		0.4044290203496527 		0.4729698936486108  0.7231428571428572 		Uiso   ? 		N 		-0.372576
N 1.0  		0.9044744523456419 		0.4729698936486108  0.22314285714285714 		Uiso   ? 		N 		-0.372576
N 1.0  		0.9044744523456419 		0.4729698936486108  0.7231428571428572 		Uiso   ? 		N 		-0.372576
N 1.0  		0.004544146296063473 		0.6729123306754053  0.22314285714285714 		Uiso   ? 		N 		-0.373591
N 1.0  		0.004544146296063473 		0.6729123306754053  0.7231428571428572 		Uiso   ? 		N 		-0.373591
N 1.0  		0.5045895782920528 		0.6729123306754053  0.22314285714285714 		Uiso   ? 		N 		-0.373591
N 1.0  		0.5045895782920528 		0.6729123306754053  0.7231428571428572 		Uiso   ? 		N 		-0.373591
N 1.0  		0.10451536480946078 		0.8728547677022  0.22314285714285714 		Uiso   ? 		N 		-0.373216
N 1.0  		0.10451536480946078 		0.8728547677022  0.7231428571428572 		Uiso   ? 		N 		-0.373216
N 1.0  		0.60456079680545 		0.8728547677022  0.22314285714285714 		Uiso   ? 		N 		-0.373216
N 1.0  		0.60456079680545 		0.8728547677022  0.7231428571428572 		Uiso   ? 		N 		-0.373216
N 1.0  		0.08312000933216178 		0.04335872924160603  0.22314285714285714 		Uiso   ? 		N 		-0.419429
N 1.0  		0.08312000933216178 		0.04335872924160603  0.7231428571428572 		Uiso   ? 		N 		-0.419429
N 1.0  		0.583165441328151 		0.04335872924160603  0.22314285714285714 		Uiso   ? 		N 		-0.419429
N 1.0  		0.583165441328151 		0.04335872924160603  0.7231428571428572 		Uiso   ? 		N 		-0.419429
N 1.0  		0.18309122784555906 		0.24330116626840065  0.22314285714285714 		Uiso   ? 		N 		-0.417314
N 1.0  		0.18309122784555906 		0.24330116626840065  0.7231428571428572 		Uiso   ? 		N 		-0.417314
N 1.0  		0.6831366598415483 		0.24330116626840065  0.22314285714285714 		Uiso   ? 		N 		-0.417314
N 1.0  		0.6831366598415483 		0.24330116626840065  0.7231428571428572 		Uiso   ? 		N 		-0.417314
N 1.0  		0.28306244635895644 		0.4434329427241979  0.22314285714285714 		Uiso   ? 		N 		-0.414385
N 1.0  		0.28306244635895644 		0.4434329427241979  0.7231428571428572 		Uiso   ? 		N 		-0.414385
N 1.0  		0.7831078783549457 		0.4434329427241979  0.22314285714285714 		Uiso   ? 		N 		-0.414385
N 1.0  		0.7831078783549457 		0.4434329427241979  0.7231428571428572 		Uiso   ? 		N 		-0.414385
N 1.0  		0.3832230043013563 		0.6433753797509926  0.22314285714285714 		Uiso   ? 		N 		-0.420311
N 1.0  		0.3832230043013563 		0.6433753797509926  0.7231428571428572 		Uiso   ? 		N 		-0.420311
N 1.0  		0.8832684362973455 		0.6433753797509926  0.22314285714285714 		Uiso   ? 		N 		-0.420311
N 1.0  		0.8832684362973455 		0.6433753797509926  0.7231428571428572 		Uiso   ? 		N 		-0.420311
N 1.0  		0.4831942228147536 		0.8433178167777872  0.22314285714285714 		Uiso   ? 		N 		-0.421327
N 1.0  		0.4831942228147536 		0.8433178167777872  0.7231428571428572 		Uiso   ? 		N 		-0.421327
N 1.0  		0.9832396548107428 		0.8433178167777872  0.22314285714285714 		Uiso   ? 		N 		-0.421327
N 1.0  		0.9832396548107428 		0.8433178167777872  0.7231428571428572 		Uiso   ? 		N 		-0.421327
N 1.0  		0.11985185855867518 		0.06910889158596595  0.22314285714285714 		Uiso   ? 		N 		-0.537493
N 1.0  		0.11985185855867518 		0.06910889158596595  0.7231428571428572 		Uiso   ? 		N 		-0.537493
N 1.0  		0.6198972905546644 		0.06910889158596595  0.22314285714285714 		Uiso   ? 		N 		-0.537493
N 1.0  		0.6198972905546644 		0.06910889158596595  0.7231428571428572 		Uiso   ? 		N 		-0.537493
N 1.0  		0.21982307707207246 		0.2692406680417632  0.22314285714285714 		Uiso   ? 		N 		-0.530655
N 1.0  		0.21982307707207246 		0.2692406680417632  0.7231428571428572 		Uiso   ? 		N 		-0.530655
N 1.0  		0.7198685090680617 		0.2692406680417632  0.22314285714285714 		Uiso   ? 		N 		-0.530655
N 1.0  		0.7198685090680617 		0.2692406680417632  0.7231428571428572 		Uiso   ? 		N 		-0.530655
N 1.0  		0.3197942955854698 		0.46918310506855787  0.22314285714285714 		Uiso   ? 		N 		-0.532572
N 1.0  		0.3197942955854698 		0.46918310506855787  0.7231428571428572 		Uiso   ? 		N 		-0.532572
N 1.0  		0.8198397275814591 		0.46918310506855787  0.22314285714285714 		Uiso   ? 		N 		-0.532572
N 1.0  		0.8198397275814591 		0.46918310506855787  0.7231428571428572 		Uiso   ? 		N 		-0.532572
N 1.0  		0.4197655140988671 		0.6691255420953525  0.22314285714285714 		Uiso   ? 		N 		-0.534678
N 1.0  		0.4197655140988671 		0.6691255420953525  0.7231428571428572 		Uiso   ? 		N 		-0.534678
N 1.0  		0.9198109460948563 		0.6691255420953525  0.22314285714285714 		Uiso   ? 		N 		-0.534678
N 1.0  		0.9198109460948563 		0.6691255420953525  0.7231428571428572 		Uiso   ? 		N 		-0.534678
N 1.0  		0.01988064004527782 		0.8690679791221471  0.22314285714285714 		Uiso   ? 		N 		-0.534721
N 1.0  		0.01988064004527782 		0.8690679791221471  0.7231428571428572 		Uiso   ? 		N 		-0.534721
N 1.0  		0.5199260720412671 		0.8690679791221471  0.22314285714285714 		Uiso   ? 		N 		-0.534721
N 1.0  		0.5199260720412671 		0.8690679791221471  0.7231428571428572 		Uiso   ? 		N 		-0.534721
N 1.0  		0.07573577160105857 		0.08652811905420942  0.22314285714285714 		Uiso   ? 		N 		-0.420031
N 1.0  		0.07573577160105857 		0.08652811905420942  0.7231428571428572 		Uiso   ? 		N 		-0.420031
N 1.0  		0.5757812035970478 		0.08652811905420942  0.22314285714285714 		Uiso   ? 		N 		-0.420031
N 1.0  		0.5757812035970478 		0.08652811905420942  0.7231428571428572 		Uiso   ? 		N 		-0.420031
N 1.0  		0.17570699011445587 		0.286470556081004  0.22314285714285714 		Uiso   ? 		N 		-0.420617
N 1.0  		0.17570699011445587 		0.286470556081004  0.7231428571428572 		Uiso   ? 		N 		-0.420617
N 1.0  		0.6757524221104451 		0.286470556081004  0.22314285714285714 		Uiso   ? 		N 		-0.420617
N 1.0  		0.6757524221104451 		0.286470556081004  0.7231428571428572 		Uiso   ? 		N 		-0.420617
N 1.0  		0.27567820862785314 		0.4866023325368013  0.22314285714285714 		Uiso   ? 		N 		-0.419377
N 1.0  		0.27567820862785314 		0.4866023325368013  0.7231428571428572 		Uiso   ? 		N 		-0.419377
N 1.0  		0.7757236406238425 		0.4866023325368013  0.22314285714285714 		Uiso   ? 		N 		-0.419377
N 1.0  		0.7757236406238425 		0.4866023325368013  0.7231428571428572 		Uiso   ? 		N 		-0.419377
N 1.0  		0.37564942714125044 		0.6865447695635959  0.22314285714285714 		Uiso   ? 		N 		-0.419315
N 1.0  		0.37564942714125044 		0.6865447695635959  0.7231428571428572 		Uiso   ? 		N 		-0.419315
N 1.0  		0.8756948591372397 		0.6865447695635959  0.22314285714285714 		Uiso   ? 		N 		-0.419315
N 1.0  		0.8756948591372397 		0.6865447695635959  0.7231428571428572 		Uiso   ? 		N 		-0.419315
N 1.0  		0.47562064565464773 		0.8864872065903906  0.22314285714285714 		Uiso   ? 		N 		-0.415323
N 1.0  		0.47562064565464773 		0.8864872065903906  0.7231428571428572 		Uiso   ? 		N 		-0.415323
N 1.0  		0.975666077650637 		0.8864872065903906  0.22314285714285714 		Uiso   ? 		N 		-0.415323
N 1.0  		0.975666077650637 		0.8864872065903906  0.7231428571428572 		Uiso   ? 		N 		-0.415323
N 1.0  		0.03521713379449223 		0.11133158425355609  0.22314285714285714 		Uiso   ? 		N 		-0.536260
N 1.0  		0.03521713379449223 		0.11133158425355609  0.7231428571428572 		Uiso   ? 		N 		-0.536260
N 1.0  		0.5352625657904815 		0.11133158425355609  0.22314285714285714 		Uiso   ? 		N 		-0.536260
N 1.0  		0.5352625657904815 		0.11133158425355609  0.7231428571428572 		Uiso   ? 		N 		-0.536260
N 1.0  		0.13537769173689215 		0.3112740212803507  0.22314285714285714 		Uiso   ? 		N 		-0.536456
N 1.0  		0.13537769173689215 		0.3112740212803507  0.7231428571428572 		Uiso   ? 		N 		-0.536456
N 1.0  		0.6354231237328813 		0.3112740212803507  0.22314285714285714 		Uiso   ? 		N 		-0.536456
N 1.0  		0.6354231237328813 		0.3112740212803507  0.7231428571428572 		Uiso   ? 		N 		-0.536456
N 1.0  		0.2353489102502895 		0.511405797736148  0.22314285714285714 		Uiso   ? 		N 		-0.532059
N 1.0  		0.2353489102502895 		0.511405797736148  0.7231428571428572 		Uiso   ? 		N 		-0.532059
N 1.0  		0.7353943422462786 		0.511405797736148  0.22314285714285714 		Uiso   ? 		N 		-0.532059
N 1.0  		0.7353943422462786 		0.511405797736148  0.7231428571428572 		Uiso   ? 		N 		-0.532059
N 1.0  		0.3353201287636867 		0.7113482347629426  0.22314285714285714 		Uiso   ? 		N 		-0.532009
N 1.0  		0.3353201287636867 		0.7113482347629426  0.7231428571428572 		Uiso   ? 		N 		-0.532009
N 1.0  		0.835365560759676 		0.7113482347629426  0.22314285714285714 		Uiso   ? 		N 		-0.532009
N 1.0  		0.835365560759676 		0.7113482347629426  0.7231428571428572 		Uiso   ? 		N 		-0.532009
N 1.0  		0.4352913472770841 		0.9112906717897372  0.22314285714285714 		Uiso   ? 		N 		-0.537181
N 1.0  		0.4352913472770841 		0.9112906717897372  0.7231428571428572 		Uiso   ? 		N 		-0.537181
N 1.0  		0.9353367792730732 		0.9112906717897372  0.22314285714285714 		Uiso   ? 		N 		-0.537181
N 1.0  		0.9353367792730732 		0.9112906717897372  0.7231428571428572 		Uiso   ? 		N 		-0.537181
N 1.0  		0.09107226535027292 		0.00037867885800529287  0.22314285714285714 		Uiso   ? 		N 		-0.459518
N 1.0  		0.09107226535027292 		0.00037867885800529287  0.7231428571428572 		Uiso   ? 		N 		-0.459518
N 1.0  		0.5911176973462621 		0.00037867885800529287  0.22314285714285714 		Uiso   ? 		N 		-0.459518
N 1.0  		0.5911176973462621 		0.00037867885800529287  0.7231428571428572 		Uiso   ? 		N 		-0.459518
N 1.0  		0.19104348386367023 		0.20051045531380254  0.22314285714285714 		Uiso   ? 		N 		-0.458296
N 1.0  		0.19104348386367023 		0.20051045531380254  0.7231428571428572 		Uiso   ? 		N 		-0.458296
N 1.0  		0.6910889158596594 		0.20051045531380254  0.22314285714285714 		Uiso   ? 		N 		-0.458296
N 1.0  		0.6910889158596594 		0.20051045531380254  0.7231428571428572 		Uiso   ? 		N 		-0.458296
N 1.0  		0.29101470237706756 		0.4004528923405972  0.22314285714285714 		Uiso   ? 		N 		-0.454084
N 1.0  		0.29101470237706756 		0.4004528923405972  0.7231428571428572 		Uiso   ? 		N 		-0.454084
N 1.0  		0.7910601343730568 		0.4004528923405972  0.22314285714285714 		Uiso   ? 		N 		-0.454084
N 1.0  		0.7910601343730568 		0.4004528923405972  0.7231428571428572 		Uiso   ? 		N 		-0.454084
N 1.0  		0.3911752603194674 		0.6003953293673918  0.22314285714285714 		Uiso   ? 		N 		-0.458924
N 1.0  		0.3911752603194674 		0.6003953293673918  0.7231428571428572 		Uiso   ? 		N 		-0.458924
N 1.0  		0.8912206923154566 		0.6003953293673918  0.22314285714285714 		Uiso   ? 		N 		-0.458924
N 1.0  		0.8912206923154566 		0.6003953293673918  0.7231428571428572 		Uiso   ? 		N 		-0.458924
N 1.0  		0.4911464788328647 		0.8003377663941865  0.22314285714285714 		Uiso   ? 		N 		-0.457963
N 1.0  		0.4911464788328647 		0.8003377663941865  0.7231428571428572 		Uiso   ? 		N 		-0.457963
N 1.0  		0.991191910828854 		0.8003377663941865  0.22314285714285714 		Uiso   ? 		N 		-0.457963
N 1.0  		0.991191910828854 		0.8003377663941865  0.7231428571428572 		Uiso   ? 		N 		-0.457963
N 1.0  		0.20164649188781844 		0.11587573054961961  0.22314285714285714 		Uiso   ? 		N 		-0.427234
N 1.0  		0.20164649188781844 		0.11587573054961961  0.7231428571428572 		Uiso   ? 		N 		-0.427234
N 1.0  		0.7016919238838076 		0.11587573054961961  0.22314285714285714 		Uiso   ? 		N 		-0.427234
N 1.0  		0.7016919238838076 		0.11587573054961961  0.7231428571428572 		Uiso   ? 		N 		-0.427234
N 1.0  		0.30161771040121577 		0.31581816757641423  0.22314285714285714 		Uiso   ? 		N 		-0.425131
N 1.0  		0.30161771040121577 		0.31581816757641423  0.7231428571428572 		Uiso   ? 		N 		-0.425131
N 1.0  		0.8016631423972049 		0.31581816757641423  0.22314285714285714 		Uiso   ? 		N 		-0.425131
N 1.0  		0.8016631423972049 		0.31581816757641423  0.7231428571428572 		Uiso   ? 		N 		-0.425131
N 1.0  		0.40177826834361563 		0.5159499440322115  0.22314285714285714 		Uiso   ? 		N 		-0.430419
N 1.0  		0.40177826834361563 		0.5159499440322115  0.7231428571428572 		Uiso   ? 		N 		-0.430419
N 1.0  		0.9018237003396049 		0.5159499440322115  0.22314285714285714 		Uiso   ? 		N 		-0.430419
N 1.0  		0.9018237003396049 		0.5159499440322115  0.7231428571428572 		Uiso   ? 		N 		-0.430419
N 1.0  		0.001704054861023774 		0.7158923810590061  0.22314285714285714 		Uiso   ? 		N 		-0.426539
N 1.0  		0.001704054861023774 		0.7158923810590061  0.7231428571428572 		Uiso   ? 		N 		-0.426539
N 1.0  		0.501749486857013 		0.7158923810590061  0.22314285714285714 		Uiso   ? 		N 		-0.426539
N 1.0  		0.501749486857013 		0.7158923810590061  0.7231428571428572 		Uiso   ? 		N 		-0.426539
N 1.0  		0.10167527337442107 		0.9158348180858007  0.22314285714285714 		Uiso   ? 		N 		-0.430510
N 1.0  		0.10167527337442107 		0.9158348180858007  0.7231428571428572 		Uiso   ? 		N 		-0.430510
N 1.0  		0.6017207053704102 		0.9158348180858007  0.22314285714285714 		Uiso   ? 		N 		-0.430510
N 1.0  		0.6017207053704102 		0.9158348180858007  0.7231428571428572 		Uiso   ? 		N 		-0.430510
N 1.0  		0.20107847360081052 		0.15809842321720977  0.22314285714285714 		Uiso   ? 		N 		-0.345566
N 1.0  		0.20107847360081052 		0.15809842321720977  0.7231428571428572 		Uiso   ? 		N 		-0.345566
N 1.0  		0.7011239055967997 		0.15809842321720977  0.22314285714285714 		Uiso   ? 		N 		-0.345566
N 1.0  		0.7011239055967997 		0.15809842321720977  0.7231428571428572 		Uiso   ? 		N 		-0.345566
N 1.0  		0.30104969211420785 		0.358230199673007  0.22314285714285714 		Uiso   ? 		N 		-0.347184
N 1.0  		0.30104969211420785 		0.358230199673007  0.7231428571428572 		Uiso   ? 		N 		-0.347184
N 1.0  		0.801095124110197 		0.358230199673007  0.22314285714285714 		Uiso   ? 		N 		-0.347184
N 1.0  		0.801095124110197 		0.358230199673007  0.7231428571428572 		Uiso   ? 		N 		-0.347184
N 1.0  		0.40102091062760503 		0.5581726366998017  0.22314285714285714 		Uiso   ? 		N 		-0.350578
N 1.0  		0.40102091062760503 		0.5581726366998017  0.7231428571428572 		Uiso   ? 		N 		-0.350578
N 1.0  		0.9010663426235944 		0.5581726366998017  0.22314285714285714 		Uiso   ? 		N 		-0.350578
N 1.0  		0.9010663426235944 		0.5581726366998017  0.7231428571428572 		Uiso   ? 		N 		-0.350578
N 1.0  		0.0011360365740158323 		0.7581150737265961  0.22314285714285714 		Uiso   ? 		N 		-0.349700
N 1.0  		0.0011360365740158323 		0.7581150737265961  0.7231428571428572 		Uiso   ? 		N 		-0.349700
N 1.0  		0.501181468570005 		0.7581150737265961  0.22314285714285714 		Uiso   ? 		N 		-0.349700
N 1.0  		0.501181468570005 		0.7581150737265961  0.7231428571428572 		Uiso   ? 		N 		-0.349700
N 1.0  		0.10110725508741314 		0.9580575107533909  0.22314285714285714 		Uiso   ? 		N 		-0.347078
N 1.0  		0.10110725508741314 		0.9580575107533909  0.7231428571428572 		Uiso   ? 		N 		-0.347078
N 1.0  		0.6011526870834022 		0.9580575107533909  0.22314285714285714 		Uiso   ? 		N 		-0.347078
N 1.0  		0.6011526870834022 		0.9580575107533909  0.7231428571428572 		Uiso   ? 		N 		-0.347078
N 1.0  		0.2853345195069881 		0.11133158425355609  0.3231428571428571 		Uiso   ? 		N 		-0.534515
N 1.0  		0.2853345195069881 		0.11133158425355609  0.8231428571428571 		Uiso   ? 		N 		-0.534515
N 1.0  		0.7853799515029773 		0.11133158425355609  0.3231428571428571 		Uiso   ? 		N 		-0.534515
N 1.0  		0.7853799515029773 		0.11133158425355609  0.8231428571428571 		Uiso   ? 		N 		-0.534515
N 1.0  		0.3853057380203855 		0.3114633607093534  0.3231428571428571 		Uiso   ? 		N 		-0.535431
N 1.0  		0.3853057380203855 		0.3114633607093534  0.8231428571428571 		Uiso   ? 		N 		-0.535431
N 1.0  		0.8853511700163748 		0.3114633607093534  0.3231428571428571 		Uiso   ? 		N 		-0.535431
N 1.0  		0.8853511700163748 		0.3114633607093534  0.8231428571428571 		Uiso   ? 		N 		-0.535431
N 1.0  		0.4852769565337828 		0.511405797736148  0.3231428571428571 		Uiso   ? 		N 		-0.534917
N 1.0  		0.4852769565337828 		0.511405797736148  0.8231428571428571 		Uiso   ? 		N 		-0.534917
N 1.0  		0.9853223885297719 		0.511405797736148  0.3231428571428571 		Uiso   ? 		N 		-0.534917
N 1.0  		0.9853223885297719 		0.511405797736148  0.8231428571428571 		Uiso   ? 		N 		-0.534917
N 1.0  		0.08539208248019349 		0.7113482347629426  0.3231428571428571 		Uiso   ? 		N 		-0.535332
N 1.0  		0.08539208248019349 		0.7113482347629426  0.8231428571428571 		Uiso   ? 		N 		-0.535332
N 1.0  		0.5854375144761828 		0.7113482347629426  0.3231428571428571 		Uiso   ? 		N 		-0.535332
N 1.0  		0.5854375144761828 		0.7113482347629426  0.8231428571428571 		Uiso   ? 		N 		-0.535332
N 1.0  		0.1853633009935908 		0.9112906717897372  0.3231428571428571 		Uiso   ? 		N 		-0.536983
N 1.0  		0.1853633009935908 		0.9112906717897372  0.8231428571428571 		Uiso   ? 		N 		-0.536983
N 1.0  		0.6854087329895799 		0.9112906717897372  0.3231428571428571 		Uiso   ? 		N 		-0.536983
N 1.0  		0.6854087329895799 		0.9112906717897372  0.8231428571428571 		Uiso   ? 		N 		-0.536983
N 1.0  		0.45782273932839906 		0.029726290353415487  0.3231428571428571 		Uiso   ? 		N 		-0.347590
N 1.0  		0.45782273932839906 		0.029726290353415487  0.8231428571428571 		Uiso   ? 		N 		-0.347590
N 1.0  		0.9578681713243883 		0.029726290353415487  0.3231428571428571 		Uiso   ? 		N 		-0.347590
N 1.0  		0.9578681713243883 		0.029726290353415487  0.8231428571428571 		Uiso   ? 		N 		-0.347590
N 1.0  		0.05774852584580714 		0.22966872738021013  0.3231428571428571 		Uiso   ? 		N 		-0.349700
N 1.0  		0.05774852584580714 		0.22966872738021013  0.8231428571428571 		Uiso   ? 		N 		-0.349700
N 1.0  		0.5577939578417964 		0.22966872738021013  0.3231428571428571 		Uiso   ? 		N 		-0.349700
N 1.0  		0.5577939578417964 		0.22966872738021013  0.8231428571428571 		Uiso   ? 		N 		-0.349700
N 1.0  		0.15771974435920444 		0.42961116440700475  0.3231428571428571 		Uiso   ? 		N 		-0.347115
N 1.0  		0.15771974435920444 		0.42961116440700475  0.8231428571428571 		Uiso   ? 		N 		-0.347115
N 1.0  		0.6577651763551937 		0.42961116440700475  0.3231428571428571 		Uiso   ? 		N 		-0.347115
N 1.0  		0.6577651763551937 		0.42961116440700475  0.8231428571428571 		Uiso   ? 		N 		-0.347115
N 1.0  		0.25769096287260174 		0.629742940862802  0.3231428571428571 		Uiso   ? 		N 		-0.346624
N 1.0  		0.25769096287260174 		0.629742940862802  0.8231428571428571 		Uiso   ? 		N 		-0.346624
N 1.0  		0.7577363948685909 		0.629742940862802  0.3231428571428571 		Uiso   ? 		N 		-0.346624
N 1.0  		0.7577363948685909 		0.629742940862802  0.8231428571428571 		Uiso   ? 		N 		-0.346624
N 1.0  		0.35785152081500166 		0.8296853778895965  0.3231428571428571 		Uiso   ? 		N 		-0.348049
N 1.0  		0.35785152081500166 		0.8296853778895965  0.8231428571428571 		Uiso   ? 		N 		-0.348049
N 1.0  		0.8578969528109909 		0.8296853778895965  0.3231428571428571 		Uiso   ? 		N 		-0.348049
N 1.0  		0.8578969528109909 		0.8296853778895965  0.8231428571428571 		Uiso   ? 		N 		-0.348049
N 1.0  		0.4975840194189548 		0.04695617839265631  0.3231428571428571 		Uiso   ? 		N 		-0.459724
N 1.0  		0.4975840194189548 		0.04695617839265631  0.8231428571428571 		Uiso   ? 		N 		-0.459724
N 1.0  		0.997629451414944 		0.04695617839265631  0.3231428571428571 		Uiso   ? 		N 		-0.459724
N 1.0  		0.997629451414944 		0.04695617839265631  0.8231428571428571 		Uiso   ? 		N 		-0.459724
N 1.0  		0.0975098059363629 		0.24708795484845356  0.3231428571428571 		Uiso   ? 		N 		-0.460072
N 1.0  		0.0975098059363629 		0.24708795484845356  0.8231428571428571 		Uiso   ? 		N 		-0.460072
N 1.0  		0.5975552379323521 		0.24708795484845356  0.3231428571428571 		Uiso   ? 		N 		-0.460072
N 1.0  		0.5975552379323521 		0.24708795484845356  0.8231428571428571 		Uiso   ? 		N 		-0.460072
N 1.0  		0.19767036387876286 		0.44703039187524823  0.3231428571428571 		Uiso   ? 		N 		-0.456658
N 1.0  		0.19767036387876286 		0.44703039187524823  0.8231428571428571 		Uiso   ? 		N 		-0.456658
N 1.0  		0.6977157958747521 		0.44703039187524823  0.3231428571428571 		Uiso   ? 		N 		-0.456658
N 1.0  		0.6977157958747521 		0.44703039187524823  0.8231428571428571 		Uiso   ? 		N 		-0.456658
N 1.0  		0.29764158239216015 		0.6469728289020428  0.3231428571428571 		Uiso   ? 		N 		-0.457193
N 1.0  		0.29764158239216015 		0.6469728289020428  0.8231428571428571 		Uiso   ? 		N 		-0.457193
N 1.0  		0.7976870143881494 		0.6469728289020428  0.3231428571428571 		Uiso   ? 		N 		-0.457193
N 1.0  		0.7976870143881494 		0.6469728289020428  0.8231428571428571 		Uiso   ? 		N 		-0.457193
N 1.0  		0.39761280090555745 		0.8471046053578402  0.3231428571428571 		Uiso   ? 		N 		-0.456600
N 1.0  		0.39761280090555745 		0.8471046053578402  0.8231428571428571 		Uiso   ? 		N 		-0.456600
N 1.0  		0.8976582329015467 		0.8471046053578402  0.3231428571428571 		Uiso   ? 		N 		-0.456600
N 1.0  		0.8976582329015467 		0.8471046053578402  0.8231428571428571 		Uiso   ? 		N 		-0.456600
N 1.0  		0.32566381788455184 		0.08652811905420942  0.3231428571428571 		Uiso   ? 		N 		-0.418910
N 1.0  		0.32566381788455184 		0.08652811905420942  0.8231428571428571 		Uiso   ? 		N 		-0.418910
N 1.0  		0.825709249880541 		0.08652811905420942  0.3231428571428571 		Uiso   ? 		N 		-0.418910
N 1.0  		0.825709249880541 		0.08652811905420942  0.8231428571428571 		Uiso   ? 		N 		-0.418910
N 1.0  		0.4258243758269518 		0.286470556081004  0.3231428571428571 		Uiso   ? 		N 		-0.419541
N 1.0  		0.4258243758269518 		0.286470556081004  0.8231428571428571 		Uiso   ? 		N 		-0.419541
N 1.0  		0.9258698078229409 		0.286470556081004  0.3231428571428571 		Uiso   ? 		N 		-0.419541
N 1.0  		0.9258698078229409 		0.286470556081004  0.8231428571428571 		Uiso   ? 		N 		-0.419541
N 1.0  		0.025750162344359884 		0.4864129931077987  0.3231428571428571 		Uiso   ? 		N 		-0.417124
N 1.0  		0.025750162344359884 		0.4864129931077987  0.8231428571428571 		Uiso   ? 		N 		-0.417124
N 1.0  		0.5257955943403492 		0.4864129931077987  0.3231428571428571 		Uiso   ? 		N 		-0.417124
N 1.0  		0.5257955943403492 		0.4864129931077987  0.8231428571428571 		Uiso   ? 		N 		-0.417124
N 1.0  		0.12572138085775716 		0.6865447695635959  0.3231428571428571 		Uiso   ? 		N 		-0.417376
N 1.0  		0.12572138085775716 		0.6865447695635959  0.8231428571428571 		Uiso   ? 		N 		-0.417376
N 1.0  		0.6257668128537465 		0.6865447695635959  0.3231428571428571 		Uiso   ? 		N 		-0.417376
N 1.0  		0.6257668128537465 		0.6865447695635959  0.8231428571428571 		Uiso   ? 		N 		-0.417376
N 1.0  		0.22569259937115446 		0.8864872065903906  0.3231428571428571 		Uiso   ? 		N 		-0.418885
N 1.0  		0.22569259937115446 		0.8864872065903906  0.8231428571428571 		Uiso   ? 		N 		-0.418885
N 1.0  		0.7257380313671438 		0.8864872065903906  0.3231428571428571 		Uiso   ? 		N 		-0.418885
N 1.0  		0.7257380313671438 		0.8864872065903906  0.8231428571428571 		Uiso   ? 		N 		-0.418885
N 1.0  		0.17362425639542678 		0.004922825154068807  0.3231428571428571 		Uiso   ? 		N 		-0.430481
N 1.0  		0.17362425639542678 		0.004922825154068807  0.8231428571428571 		Uiso   ? 		N 		-0.430481
N 1.0  		0.6736696883914159 		0.004922825154068807  0.3231428571428571 		Uiso   ? 		N 		-0.430481
N 1.0  		0.6736696883914159 		0.004922825154068807  0.8231428571428571 		Uiso   ? 		N 		-0.430481
N 1.0  		0.2735954749088241 		0.20486526218086346  0.3231428571428571 		Uiso   ? 		N 		-0.426801
N 1.0  		0.2735954749088241 		0.20486526218086346  0.8231428571428571 		Uiso   ? 		N 		-0.426801
N 1.0  		0.7736409069048134 		0.20486526218086346  0.3231428571428571 		Uiso   ? 		N 		-0.426801
N 1.0  		0.7736409069048134 		0.20486526218086346  0.8231428571428571 		Uiso   ? 		N 		-0.426801
N 1.0  		0.37356669342222143 		0.404807699207658  0.3231428571428571 		Uiso   ? 		N 		-0.424891
N 1.0  		0.37356669342222143 		0.404807699207658  0.8231428571428571 		Uiso   ? 		N 		-0.424891
N 1.0  		0.8736121254182105 		0.404807699207658  0.3231428571428571 		Uiso   ? 		N 		-0.424891
N 1.0  		0.8736121254182105 		0.404807699207658  0.8231428571428571 		Uiso   ? 		N 		-0.424891
N 1.0  		0.4735379119356186 		0.6049394756634553  0.3231428571428571 		Uiso   ? 		N 		-0.432397
N 1.0  		0.4735379119356186 		0.6049394756634553  0.8231428571428571 		Uiso   ? 		N 		-0.432397
N 1.0  		0.973583343931608 		0.6049394756634553  0.3231428571428571 		Uiso   ? 		N 		-0.432397
N 1.0  		0.973583343931608 		0.6049394756634553  0.8231428571428571 		Uiso   ? 		N 		-0.432397
N 1.0  		0.0736530378820294 		0.80488191269025  0.3231428571428571 		Uiso   ? 		N 		-0.429624
N 1.0  		0.0736530378820294 		0.80488191269025  0.8231428571428571 		Uiso   ? 		N 		-0.429624
N 1.0  		0.5736984698780186 		0.80488191269025  0.3231428571428571 		Uiso   ? 		N 		-0.429624
N 1.0  		0.5736984698780186 		0.80488191269025  0.8231428571428571 		Uiso   ? 		N 		-0.429624
N 1.0  		0.4235523026789201 		0.004733485725066161  0.3231428571428571 		Uiso   ? 		N 		-0.425303
N 1.0  		0.4235523026789201 		0.004733485725066161  0.8231428571428571 		Uiso   ? 		N 		-0.425303
N 1.0  		0.9235977346749092 		0.004733485725066161  0.3231428571428571 		Uiso   ? 		N 		-0.425303
N 1.0  		0.9235977346749092 		0.004733485725066161  0.8231428571428571 		Uiso   ? 		N 		-0.425303
N 1.0  		0.023478089196328142 		0.20486526218086346  0.3231428571428571 		Uiso   ? 		N 		-0.426522
N 1.0  		0.023478089196328142 		0.20486526218086346  0.8231428571428571 		Uiso   ? 		N 		-0.426522
N 1.0  		0.5235235211923174 		0.20486526218086346  0.3231428571428571 		Uiso   ? 		N 		-0.426522
N 1.0  		0.5235235211923174 		0.20486526218086346  0.8231428571428571 		Uiso   ? 		N 		-0.426522
N 1.0  		0.12363864713872809 		0.404807699207658  0.3231428571428571 		Uiso   ? 		N 		-0.431111
N 1.0  		0.12363864713872809 		0.404807699207658  0.8231428571428571 		Uiso   ? 		N 		-0.431111
N 1.0  		0.6236840791347174 		0.404807699207658  0.3231428571428571 		Uiso   ? 		N 		-0.431111
N 1.0  		0.6236840791347174 		0.404807699207658  0.8231428571428571 		Uiso   ? 		N 		-0.431111
N 1.0  		0.2236098656521254 		0.6047501362344526  0.3231428571428571 		Uiso   ? 		N 		-0.429027
N 1.0  		0.2236098656521254 		0.6047501362344526  0.8231428571428571 		Uiso   ? 		N 		-0.429027
N 1.0  		0.7236552976481146 		0.6047501362344526  0.3231428571428571 		Uiso   ? 		N 		-0.429027
N 1.0  		0.7236552976481146 		0.6047501362344526  0.8231428571428571 		Uiso   ? 		N 		-0.429027
N 1.0  		0.32358108416552267 		0.80488191269025  0.3231428571428571 		Uiso   ? 		N 		-0.431478
N 1.0  		0.32358108416552267 		0.80488191269025  0.8231428571428571 		Uiso   ? 		N 		-0.431478
N 1.0  		0.8236265161615118 		0.80488191269025  0.3231428571428571 		Uiso   ? 		N 		-0.431478
N 1.0  		0.8236265161615118 		0.80488191269025  0.8231428571428571 		Uiso   ? 		N 		-0.431478
N 1.0  		0.48754902968181457 		0.18119783355553262  0.3231428571428571 		Uiso   ? 		N 		-0.370835
N 1.0  		0.48754902968181457 		0.18119783355553262  0.8231428571428571 		Uiso   ? 		N 		-0.370835
N 1.0  		0.9875944616778037 		0.18119783355553262  0.3231428571428571 		Uiso   ? 		N 		-0.370835
N 1.0  		0.9875944616778037 		0.18119783355553262  0.8231428571428571 		Uiso   ? 		N 		-0.370835
N 1.0  		0.08747481619922262 		0.38132961001132987  0.3231428571428571 		Uiso   ? 		N 		-0.374681
N 1.0  		0.08747481619922262 		0.38132961001132987  0.8231428571428571 		Uiso   ? 		N 		-0.374681
N 1.0  		0.5875202481952119 		0.38132961001132987  0.3231428571428571 		Uiso   ? 		N 		-0.374681
N 1.0  		0.5875202481952119 		0.38132961001132987  0.8231428571428571 		Uiso   ? 		N 		-0.374681
N 1.0  		0.18744603471261992 		0.5812720470381245  0.3231428571428571 		Uiso   ? 		N 		-0.369820
N 1.0  		0.18744603471261992 		0.5812720470381245  0.8231428571428571 		Uiso   ? 		N 		-0.369820
N 1.0  		0.6874914667086092 		0.5812720470381245  0.3231428571428571 		Uiso   ? 		N 		-0.369820
N 1.0  		0.6874914667086092 		0.5812720470381245  0.8231428571428571 		Uiso   ? 		N 		-0.369820
N 1.0  		0.28760659265501987 		0.7814038234939218  0.3231428571428571 		Uiso   ? 		N 		-0.371236
N 1.0  		0.28760659265501987 		0.7814038234939218  0.8231428571428571 		Uiso   ? 		N 		-0.371236
N 1.0  		0.7876520246510091 		0.7814038234939218  0.3231428571428571 		Uiso   ? 		N 		-0.371236
N 1.0  		0.7876520246510091 		0.7814038234939218  0.8231428571428571 		Uiso   ? 		N 		-0.371236
N 1.0  		0.3875778111684172 		0.9813462605207164  0.3231428571428571 		Uiso   ? 		N 		-0.370863
N 1.0  		0.3875778111684172 		0.9813462605207164  0.8231428571428571 		Uiso   ? 		N 		-0.370863
N 1.0  		0.8876232431644062 		0.9813462605207164  0.3231428571428571 		Uiso   ? 		N 		-0.370863
N 1.0  		0.8876232431644062 		0.9813462605207164  0.8231428571428571 		Uiso   ? 		N 		-0.370863
N 1.0  		0.4510065198843038 		0.15809842321720977  0.3231428571428571 		Uiso   ? 		N 		-0.346929
N 1.0  		0.4510065198843038 		0.15809842321720977  0.8231428571428571 		Uiso   ? 		N 		-0.346929
N 1.0  		0.9510519518802929 		0.15809842321720977  0.3231428571428571 		Uiso   ? 		N 		-0.346929
N 1.0  		0.9510519518802929 		0.15809842321720977  0.8231428571428571 		Uiso   ? 		N 		-0.346929
N 1.0  		0.05093230640171187 		0.3580408602440044  0.3231428571428571 		Uiso   ? 		N 		-0.350452
N 1.0  		0.05093230640171187 		0.3580408602440044  0.8231428571428571 		Uiso   ? 		N 		-0.350452
N 1.0  		0.5509777383977011 		0.3580408602440044  0.3231428571428571 		Uiso   ? 		N 		-0.350452
N 1.0  		0.5509777383977011 		0.3580408602440044  0.8231428571428571 		Uiso   ? 		N 		-0.350452
N 1.0  		0.15109286434411182 		0.557983297270799  0.3231428571428571 		Uiso   ? 		N 		-0.350413
N 1.0  		0.15109286434411182 		0.557983297270799  0.8231428571428571 		Uiso   ? 		N 		-0.350413
N 1.0  		0.651138296340101 		0.557983297270799  0.3231428571428571 		Uiso   ? 		N 		-0.350413
N 1.0  		0.651138296340101 		0.557983297270799  0.8231428571428571 		Uiso   ? 		N 		-0.350413
N 1.0  		0.2510640828575091 		0.7581150737265961  0.3231428571428571 		Uiso   ? 		N 		-0.346544
N 1.0  		0.2510640828575091 		0.7581150737265961  0.8231428571428571 		Uiso   ? 		N 		-0.346544
N 1.0  		0.7511095148534984 		0.7581150737265961  0.3231428571428571 		Uiso   ? 		N 		-0.346544
N 1.0  		0.7511095148534984 		0.7581150737265961  0.8231428571428571 		Uiso   ? 		N 		-0.346544
N 1.0  		0.35103530137090644 		0.9580575107533909  0.3231428571428571 		Uiso   ? 		N 		-0.347732
N 1.0  		0.35103530137090644 		0.9580575107533909  0.8231428571428571 		Uiso   ? 		N 		-0.347732
N 1.0  		0.8510807333668956 		0.9580575107533909  0.3231428571428571 		Uiso   ? 		N 		-0.347732
N 1.0  		0.8510807333668956 		0.9580575107533909  0.8231428571428571 		Uiso   ? 		N 		-0.347732
N 1.0  		0.2078946930449058 		0.029726290353415487  0.3231428571428571 		Uiso   ? 		N 		-0.349734
N 1.0  		0.2078946930449058 		0.029726290353415487  0.8231428571428571 		Uiso   ? 		N 		-0.349734
N 1.0  		0.707940125040895 		0.029726290353415487  0.3231428571428571 		Uiso   ? 		N 		-0.349734
N 1.0  		0.707940125040895 		0.029726290353415487  0.8231428571428571 		Uiso   ? 		N 		-0.349734
N 1.0  		0.30786591155830306 		0.22966872738021013  0.3231428571428571 		Uiso   ? 		N 		-0.349689
N 1.0  		0.30786591155830306 		0.22966872738021013  0.8231428571428571 		Uiso   ? 		N 		-0.349689
N 1.0  		0.8079113435542924 		0.22966872738021013  0.3231428571428571 		Uiso   ? 		N 		-0.349689
N 1.0  		0.8079113435542924 		0.22966872738021013  0.8231428571428571 		Uiso   ? 		N 		-0.349689
N 1.0  		0.40783713007170036 		0.4298005038360074  0.3231428571428571 		Uiso   ? 		N 		-0.347573
N 1.0  		0.40783713007170036 		0.4298005038360074  0.8231428571428571 		Uiso   ? 		N 		-0.347573
N 1.0  		0.9078825620676896 		0.4298005038360074  0.3231428571428571 		Uiso   ? 		N 		-0.347573
N 1.0  		0.9078825620676896 		0.4298005038360074  0.8231428571428571 		Uiso   ? 		N 		-0.347573
N 1.0  		0.007762916589108465 		0.629742940862802  0.3231428571428571 		Uiso   ? 		N 		-0.352688
N 1.0  		0.007762916589108465 		0.629742940862802  0.8231428571428571 		Uiso   ? 		N 		-0.352688
N 1.0  		0.5078083485850977 		0.629742940862802  0.3231428571428571 		Uiso   ? 		N 		-0.352688
N 1.0  		0.5078083485850977 		0.629742940862802  0.8231428571428571 		Uiso   ? 		N 		-0.352688
N 1.0  		0.1079234745315084 		0.8296853778895965  0.3231428571428571 		Uiso   ? 		N 		-0.349149
N 1.0  		0.1079234745315084 		0.8296853778895965  0.8231428571428571 		Uiso   ? 		N 		-0.349149
N 1.0  		0.6079689065274977 		0.8296853778895965  0.3231428571428571 		Uiso   ? 		N 		-0.349149
N 1.0  		0.6079689065274977 		0.8296853778895965  0.8231428571428571 		Uiso   ? 		N 		-0.349149
N 1.0  		0.0367318492265134 		0.0664581395799289  0.3231428571428571 		Uiso   ? 		N 		-0.413673
N 1.0  		0.0367318492265134 		0.0664581395799289  0.8231428571428571 		Uiso   ? 		N 		-0.413673
N 1.0  		0.5367772812225026 		0.0664581395799289  0.3231428571428571 		Uiso   ? 		N 		-0.413673
N 1.0  		0.5367772812225026 		0.0664581395799289  0.8231428571428571 		Uiso   ? 		N 		-0.413673
N 1.0  		0.13670306773991067 		0.2665899160357261  0.3231428571428571 		Uiso   ? 		N 		-0.416614
N 1.0  		0.13670306773991067 		0.2665899160357261  0.8231428571428571 		Uiso   ? 		N 		-0.416614
N 1.0  		0.6367484997358999 		0.2665899160357261  0.3231428571428571 		Uiso   ? 		N 		-0.416614
N 1.0  		0.6367484997358999 		0.2665899160357261  0.8231428571428571 		Uiso   ? 		N 		-0.416614
N 1.0  		0.236674286253308 		0.4665323530625208  0.3231428571428571 		Uiso   ? 		N 		-0.419230
N 1.0  		0.236674286253308 		0.4665323530625208  0.8231428571428571 		Uiso   ? 		N 		-0.419230
N 1.0  		0.7367197182492973 		0.4665323530625208  0.3231428571428571 		Uiso   ? 		N 		-0.419230
N 1.0  		0.7367197182492973 		0.4665323530625208  0.8231428571428571 		Uiso   ? 		N 		-0.419230
N 1.0  		0.3366455047667053 		0.6664747900893154  0.3231428571428571 		Uiso   ? 		N 		-0.418175
N 1.0  		0.3366455047667053 		0.6664747900893154  0.8231428571428571 		Uiso   ? 		N 		-0.418175
N 1.0  		0.8366909367626945 		0.6664747900893154  0.3231428571428571 		Uiso   ? 		N 		-0.418175
N 1.0  		0.8366909367626945 		0.6664747900893154  0.8231428571428571 		Uiso   ? 		N 		-0.418175
N 1.0  		0.4366167232801026 		0.8664172271161099  0.3231428571428571 		Uiso   ? 		N 		-0.420381
N 1.0  		0.4366167232801026 		0.8664172271161099  0.8231428571428571 		Uiso   ? 		N 		-0.420381
N 1.0  		0.9366621552760919 		0.8664172271161099  0.3231428571428571 		Uiso   ? 		N 		-0.420381
N 1.0  		0.9366621552760919 		0.8664172271161099  0.8231428571428571 		Uiso   ? 		N 		-0.420381
N 1.0  		0.41370665237078247 		0.049606930398693364  0.3231428571428571 		Uiso   ? 		N 		-0.489798
N 1.0  		0.41370665237078247 		0.049606930398693364  0.8231428571428571 		Uiso   ? 		N 		-0.489798
N 1.0  		0.9137520843667716 		0.049606930398693364  0.3231428571428571 		Uiso   ? 		N 		-0.489798
N 1.0  		0.9137520843667716 		0.049606930398693364  0.8231428571428571 		Uiso   ? 		N 		-0.489798
N 1.0  		0.013821778317193173 		0.24973870685449062  0.3231428571428571 		Uiso   ? 		N 		-0.483909
N 1.0  		0.013821778317193173 		0.24973870685449062  0.8231428571428571 		Uiso   ? 		N 		-0.483909
N 1.0  		0.5138672103131824 		0.24973870685449062  0.3231428571428571 		Uiso   ? 		N 		-0.483909
N 1.0  		0.5138672103131824 		0.24973870685449062  0.8231428571428571 		Uiso   ? 		N 		-0.483909
N 1.0  		0.11379299683059046 		0.4496811438812853  0.3231428571428571 		Uiso   ? 		N 		-0.489463
N 1.0  		0.11379299683059046 		0.4496811438812853  0.8231428571428571 		Uiso   ? 		N 		-0.489463
N 1.0  		0.6138384288265797 		0.4496811438812853  0.3231428571428571 		Uiso   ? 		N 		-0.489463
N 1.0  		0.6138384288265797 		0.4496811438812853  0.8231428571428571 		Uiso   ? 		N 		-0.489463
N 1.0  		0.2137642153439878 		0.6496235809080799  0.3231428571428571 		Uiso   ? 		N 		-0.487330
N 1.0  		0.2137642153439878 		0.6496235809080799  0.8231428571428571 		Uiso   ? 		N 		-0.487330
N 1.0  		0.713809647339977 		0.6496235809080799  0.3231428571428571 		Uiso   ? 		N 		-0.487330
N 1.0  		0.713809647339977 		0.6496235809080799  0.8231428571428571 		Uiso   ? 		N 		-0.487330
N 1.0  		0.31373543385738506 		0.8495660179348745  0.3231428571428571 		Uiso   ? 		N 		-0.489325
N 1.0  		0.31373543385738506 		0.8495660179348745  0.8231428571428571 		Uiso   ? 		N 		-0.489325
N 1.0  		0.8137808658533743 		0.8495660179348745  0.3231428571428571 		Uiso   ? 		N 		-0.489325
N 1.0  		0.8137808658533743 		0.8495660179348745  0.8231428571428571 		Uiso   ? 		N 		-0.489325
N 1.0  		0.3697799048421685 		0.06910889158596595  0.3231428571428571 		Uiso   ? 		N 		-0.534188
N 1.0  		0.3697799048421685 		0.06910889158596595  0.8231428571428571 		Uiso   ? 		N 		-0.534188
N 1.0  		0.8698253368381578 		0.06910889158596595  0.3231428571428571 		Uiso   ? 		N 		-0.534188
N 1.0  		0.8698253368381578 		0.06910889158596595  0.8231428571428571 		Uiso   ? 		N 		-0.534188
N 1.0  		0.46975112335556574 		0.2690513286127606  0.3231428571428571 		Uiso   ? 		N 		-0.535140
N 1.0  		0.46975112335556574 		0.2690513286127606  0.8231428571428571 		Uiso   ? 		N 		-0.535140
N 1.0  		0.969796555351555 		0.2690513286127606  0.3231428571428571 		Uiso   ? 		N 		-0.535140
N 1.0  		0.969796555351555 		0.2690513286127606  0.8231428571428571 		Uiso   ? 		N 		-0.535140
N 1.0  		0.0698662493019765 		0.46899376563955514  0.3231428571428571 		Uiso   ? 		N 		-0.534048
N 1.0  		0.0698662493019765 		0.46899376563955514  0.8231428571428571 		Uiso   ? 		N 		-0.534048
N 1.0  		0.5699116812979657 		0.46899376563955514  0.3231428571428571 		Uiso   ? 		N 		-0.534048
N 1.0  		0.5699116812979657 		0.46899376563955514  0.8231428571428571 		Uiso   ? 		N 		-0.534048
N 1.0  		0.16983746781537382 		0.6691255420953525  0.3231428571428571 		Uiso   ? 		N 		-0.536789
N 1.0  		0.16983746781537382 		0.6691255420953525  0.8231428571428571 		Uiso   ? 		N 		-0.536789
N 1.0  		0.669882899811363 		0.6691255420953525  0.3231428571428571 		Uiso   ? 		N 		-0.536789
N 1.0  		0.669882899811363 		0.6691255420953525  0.8231428571428571 		Uiso   ? 		N 		-0.536789
N 1.0  		0.2698086863287711 		0.8690679791221471  0.3231428571428571 		Uiso   ? 		N 		-0.534741
N 1.0  		0.2698086863287711 		0.8690679791221471  0.8231428571428571 		Uiso   ? 		N 		-0.534741
N 1.0  		0.7698541183247604 		0.8690679791221471  0.3231428571428571 		Uiso   ? 		N 		-0.534741
N 1.0  		0.7698541183247604 		0.8690679791221471  0.8231428571428571 		Uiso   ? 		N 		-0.534741
N 1.0  		0.2866598955100067 		0.0664581395799289  0.3231428571428571 		Uiso   ? 		N 		-0.416350
N 1.0  		0.2866598955100067 		0.0664581395799289  0.8231428571428571 		Uiso   ? 		N 		-0.416350
N 1.0  		0.786705327505996 		0.0664581395799289  0.3231428571428571 		Uiso   ? 		N 		-0.416350
N 1.0  		0.786705327505996 		0.0664581395799289  0.8231428571428571 		Uiso   ? 		N 		-0.416350
N 1.0  		0.3868204534524067 		0.2665899160357261  0.3231428571428571 		Uiso   ? 		N 		-0.415585
N 1.0  		0.3868204534524067 		0.2665899160357261  0.8231428571428571 		Uiso   ? 		N 		-0.415585
N 1.0  		0.8868658854483958 		0.2665899160357261  0.3231428571428571 		Uiso   ? 		N 		-0.415585
N 1.0  		0.8868658854483958 		0.2665899160357261  0.8231428571428571 		Uiso   ? 		N 		-0.415585
N 1.0  		0.4867916719658039 		0.4665323530625208  0.3231428571428571 		Uiso   ? 		N 		-0.413619
N 1.0  		0.4867916719658039 		0.4665323530625208  0.8231428571428571 		Uiso   ? 		N 		-0.413619
N 1.0  		0.9868371039617931 		0.4665323530625208  0.3231428571428571 		Uiso   ? 		N 		-0.413619
N 1.0  		0.9868371039617931 		0.4665323530625208  0.8231428571428571 		Uiso   ? 		N 		-0.413619
N 1.0  		0.08671745848321202 		0.6664747900893154  0.3231428571428571 		Uiso   ? 		N 		-0.416373
N 1.0  		0.08671745848321202 		0.6664747900893154  0.8231428571428571 		Uiso   ? 		N 		-0.416373
N 1.0  		0.5867628904792013 		0.6664747900893154  0.3231428571428571 		Uiso   ? 		N 		-0.416373
N 1.0  		0.5867628904792013 		0.6664747900893154  0.8231428571428571 		Uiso   ? 		N 		-0.416373
N 1.0  		0.18668867699660932 		0.8666065665451127  0.3231428571428571 		Uiso   ? 		N 		-0.419526
N 1.0  		0.18668867699660932 		0.8666065665451127  0.8231428571428571 		Uiso   ? 		N 		-0.419526
N 1.0  		0.6867341089925986 		0.8666065665451127  0.3231428571428571 		Uiso   ? 		N 		-0.419526
N 1.0  		0.6867341089925986 		0.8666065665451127  0.8231428571428571 		Uiso   ? 		N 		-0.419526
N 1.0  		0.23762098339832124 		0.18138717298453527  0.3231428571428571 		Uiso   ? 		N 		-0.372881
N 1.0  		0.23762098339832124 		0.18138717298453527  0.8231428571428571 		Uiso   ? 		N 		-0.372881
N 1.0  		0.7376664153943104 		0.18138717298453527  0.3231428571428571 		Uiso   ? 		N 		-0.372881
N 1.0  		0.7376664153943104 		0.18138717298453527  0.8231428571428571 		Uiso   ? 		N 		-0.372881
N 1.0  		0.33759220191171857 		0.38132961001132987  0.3231428571428571 		Uiso   ? 		N 		-0.371985
N 1.0  		0.33759220191171857 		0.38132961001132987  0.8231428571428571 		Uiso   ? 		N 		-0.371985
N 1.0  		0.8376376339077078 		0.38132961001132987  0.3231428571428571 		Uiso   ? 		N 		-0.371985
N 1.0  		0.8376376339077078 		0.38132961001132987  0.8231428571428571 		Uiso   ? 		N 		-0.371985
N 1.0  		0.4375634204251158 		0.5814613864671272  0.3231428571428571 		Uiso   ? 		N 		-0.378120
N 1.0  		0.4375634204251158 		0.5814613864671272  0.8231428571428571 		Uiso   ? 		N 		-0.378120
N 1.0  		0.937608852421105 		0.5814613864671272  0.3231428571428571 		Uiso   ? 		N 		-0.378120
N 1.0  		0.937608852421105 		0.5814613864671272  0.8231428571428571 		Uiso   ? 		N 		-0.378120
N 1.0  		0.037678546371526594 		0.7814038234939218  0.3231428571428571 		Uiso   ? 		N 		-0.369073
N 1.0  		0.037678546371526594 		0.7814038234939218  0.8231428571428571 		Uiso   ? 		N 		-0.369073
N 1.0  		0.5377239783675158 		0.7814038234939218  0.3231428571428571 		Uiso   ? 		N 		-0.369073
N 1.0  		0.5377239783675158 		0.7814038234939218  0.8231428571428571 		Uiso   ? 		N 		-0.369073
N 1.0  		0.1376497648849239 		0.9813462605207164  0.3231428571428571 		Uiso   ? 		N 		-0.371300
N 1.0  		0.1376497648849239 		0.9813462605207164  0.8231428571428571 		Uiso   ? 		N 		-0.371300
N 1.0  		0.637695196880913 		0.9813462605207164  0.3231428571428571 		Uiso   ? 		N 		-0.371300
N 1.0  		0.637695196880913 		0.9813462605207164  0.8231428571428571 		Uiso   ? 		N 		-0.371300
N 1.0  		0.16377860608728914 		0.049606930398693364  0.3231428571428571 		Uiso   ? 		N 		-0.488327
N 1.0  		0.16377860608728914 		0.049606930398693364  0.8231428571428571 		Uiso   ? 		N 		-0.488327
N 1.0  		0.6638240380832783 		0.049606930398693364  0.3231428571428571 		Uiso   ? 		N 		-0.488327
N 1.0  		0.6638240380832783 		0.049606930398693364  0.8231428571428571 		Uiso   ? 		N 		-0.488327
N 1.0  		0.2639391640296891 		0.24973870685449062  0.3231428571428571 		Uiso   ? 		N 		-0.481999
N 1.0  		0.2639391640296891 		0.24973870685449062  0.8231428571428571 		Uiso   ? 		N 		-0.481999
N 1.0  		0.7639845960256784 		0.24973870685449062  0.3231428571428571 		Uiso   ? 		N 		-0.481999
N 1.0  		0.7639845960256784 		0.24973870685449062  0.8231428571428571 		Uiso   ? 		N 		-0.481999
N 1.0  		0.3639103825430864 		0.4496811438812853  0.3231428571428571 		Uiso   ? 		N 		-0.486648
N 1.0  		0.3639103825430864 		0.4496811438812853  0.8231428571428571 		Uiso   ? 		N 		-0.486648
N 1.0  		0.8639558145390756 		0.4496811438812853  0.3231428571428571 		Uiso   ? 		N 		-0.486648
N 1.0  		0.8639558145390756 		0.4496811438812853  0.8231428571428571 		Uiso   ? 		N 		-0.486648
N 1.0  		0.46388160105648374 		0.6496235809080799  0.3231428571428571 		Uiso   ? 		N 		-0.490954
N 1.0  		0.46388160105648374 		0.6496235809080799  0.8231428571428571 		Uiso   ? 		N 		-0.490954
N 1.0  		0.963927033052473 		0.6496235809080799  0.3231428571428571 		Uiso   ? 		N 		-0.490954
N 1.0  		0.963927033052473 		0.6496235809080799  0.8231428571428571 		Uiso   ? 		N 		-0.490954
N 1.0  		0.06380738757389179 		0.8497553573638772  0.3231428571428571 		Uiso   ? 		N 		-0.484712
N 1.0  		0.06380738757389179 		0.8497553573638772  0.8231428571428571 		Uiso   ? 		N 		-0.484712
N 1.0  		0.5638528195698811 		0.8497553573638772  0.3231428571428571 		Uiso   ? 		N 		-0.484712
N 1.0  		0.5638528195698811 		0.8497553573638772  0.8231428571428571 		Uiso   ? 		N 		-0.484712
N 1.0  		0.12818279343479164 		0.024803465199346682  0.3231428571428571 		Uiso   ? 		N 		-0.277082
N 1.0  		0.12818279343479164 		0.024803465199346682  0.8231428571428571 		Uiso   ? 		N 		-0.277082
N 1.0  		0.6282282254307808 		0.024803465199346682  0.3231428571428571 		Uiso   ? 		N 		-0.277082
N 1.0  		0.6282282254307808 		0.024803465199346682  0.8231428571428571 		Uiso   ? 		N 		-0.277082
N 1.0  		0.4544146296063514 		0.07270634073701623  0.3231428571428571 		Uiso   ? 		N 		-0.373666
N 1.0  		0.4544146296063514 		0.07270634073701623  0.8231428571428571 		Uiso   ? 		N 		-0.373666
N 1.0  		0.9544600616023406 		0.07270634073701623  0.3231428571428571 		Uiso   ? 		N 		-0.373666
N 1.0  		0.9544600616023406 		0.07270634073701623  0.8231428571428571 		Uiso   ? 		N 		-0.373666
N 1.0  		0.22815401194818896 		0.22474590222614133  0.3231428571428571 		Uiso   ? 		N 		-0.274999
N 1.0  		0.22815401194818896 		0.22474590222614133  0.8231428571428571 		Uiso   ? 		N 		-0.274999
N 1.0  		0.7281994439441781 		0.22474590222614133  0.3231428571428571 		Uiso   ? 		N 		-0.274999
N 1.0  		0.7281994439441781 		0.22474590222614133  0.8231428571428571 		Uiso   ? 		N 		-0.274999
N 1.0  		0.054529755552762155 		0.2728381171928135  0.3231428571428571 		Uiso   ? 		N 		-0.373988
N 1.0  		0.054529755552762155 		0.2728381171928135  0.8231428571428571 		Uiso   ? 		N 		-0.373988
N 1.0  		0.5545751875487513 		0.2728381171928135  0.3231428571428571 		Uiso   ? 		N 		-0.373988
N 1.0  		0.5545751875487513 		0.2728381171928135  0.8231428571428571 		Uiso   ? 		N 		-0.373988
N 1.0  		0.32812523046158626 		0.4248776786819386  0.3231428571428571 		Uiso   ? 		N 		-0.276666
N 1.0  		0.32812523046158626 		0.4248776786819386  0.8231428571428571 		Uiso   ? 		N 		-0.276666
N 1.0  		0.8281706624575754 		0.4248776786819386  0.3231428571428571 		Uiso   ? 		N 		-0.276666
N 1.0  		0.8281706624575754 		0.4248776786819386  0.8231428571428571 		Uiso   ? 		N 		-0.276666
N 1.0  		0.15450097406615945 		0.4727805542196081  0.3231428571428571 		Uiso   ? 		N 		-0.373311
N 1.0  		0.15450097406615945 		0.4727805542196081  0.8231428571428571 		Uiso   ? 		N 		-0.373311
N 1.0  		0.6545464060621486 		0.4727805542196081  0.3231428571428571 		Uiso   ? 		N 		-0.373311
N 1.0  		0.6545464060621486 		0.4727805542196081  0.8231428571428571 		Uiso   ? 		N 		-0.373311
N 1.0  		0.4280964489749835 		0.6248201157087332  0.3231428571428571 		Uiso   ? 		N 		-0.277794
N 1.0  		0.4280964489749835 		0.6248201157087332  0.8231428571428571 		Uiso   ? 		N 		-0.277794
N 1.0  		0.9281418809709728 		0.6248201157087332  0.3231428571428571 		Uiso   ? 		N 		-0.277794
N 1.0  		0.9281418809709728 		0.6248201157087332  0.8231428571428571 		Uiso   ? 		N 		-0.277794
N 1.0  		0.2544721925795568 		0.6727229912464028  0.3231428571428571 		Uiso   ? 		N 		-0.373767
N 1.0  		0.2544721925795568 		0.6727229912464028  0.8231428571428571 		Uiso   ? 		N 		-0.373767
N 1.0  		0.7545176245755459 		0.6727229912464028  0.3231428571428571 		Uiso   ? 		N 		-0.373767
N 1.0  		0.7545176245755459 		0.6727229912464028  0.8231428571428571 		Uiso   ? 		N 		-0.373767
N 1.0  		0.028211574921394263 		0.8247625527355278  0.3231428571428571 		Uiso   ? 		N 		-0.278323
N 1.0  		0.028211574921394263 		0.8247625527355278  0.8231428571428571 		Uiso   ? 		N 		-0.278323
N 1.0  		0.5282570069173835 		0.8247625527355278  0.3231428571428571 		Uiso   ? 		N 		-0.278323
N 1.0  		0.5282570069173835 		0.8247625527355278  0.8231428571428571 		Uiso   ? 		N 		-0.278323
N 1.0  		0.3544434110929541 		0.8728547677022  0.3231428571428571 		Uiso   ? 		N 		-0.376480
N 1.0  		0.3544434110929541 		0.8728547677022  0.8231428571428571 		Uiso   ? 		N 		-0.376480
N 1.0  		0.8544888430889432 		0.8728547677022  0.3231428571428571 		Uiso   ? 		N 		-0.376480
N 1.0  		0.8544888430889432 		0.8728547677022  0.8231428571428571 		Uiso   ? 		N 		-0.376480
N 1.0  		0.3410003116337662 		0.00037867885800529287  0.3231428571428571 		Uiso   ? 		N 		-0.458086
N 1.0  		0.3410003116337662 		0.00037867885800529287  0.8231428571428571 		Uiso   ? 		N 		-0.458086
N 1.0  		0.8410457436297555 		0.00037867885800529287  0.3231428571428571 		Uiso   ? 		N 		-0.458086
N 1.0  		0.8410457436297555 		0.00037867885800529287  0.8231428571428571 		Uiso   ? 		N 		-0.458086
N 1.0  		0.44097153014716356 		0.20032111588479992  0.3231428571428571 		Uiso   ? 		N 		-0.457460
N 1.0  		0.44097153014716356 		0.20032111588479992  0.8231428571428571 		Uiso   ? 		N 		-0.457460
N 1.0  		0.9410169621431527 		0.20032111588479992  0.3231428571428571 		Uiso   ? 		N 		-0.457460
N 1.0  		0.9410169621431527 		0.20032111588479992  0.8231428571428571 		Uiso   ? 		N 		-0.457460
N 1.0  		0.041086656093574245 		0.4002635529115945  0.3231428571428571 		Uiso   ? 		N 		-0.458536
N 1.0  		0.041086656093574245 		0.4002635529115945  0.8231428571428571 		Uiso   ? 		N 		-0.458536
N 1.0  		0.5411320880895635 		0.4002635529115945  0.3231428571428571 		Uiso   ? 		N 		-0.458536
N 1.0  		0.5411320880895635 		0.4002635529115945  0.8231428571428571 		Uiso   ? 		N 		-0.458536
N 1.0  		0.14105787460697156 		0.6003953293673918  0.3231428571428571 		Uiso   ? 		N 		-0.457646
N 1.0  		0.14105787460697156 		0.6003953293673918  0.8231428571428571 		Uiso   ? 		N 		-0.457646
N 1.0  		0.6411033066029608 		0.6003953293673918  0.3231428571428571 		Uiso   ? 		N 		-0.457646
N 1.0  		0.6411033066029608 		0.6003953293673918  0.8231428571428571 		Uiso   ? 		N 		-0.457646
N 1.0  		0.24102909312036883 		0.8003377663941865  0.3231428571428571 		Uiso   ? 		N 		-0.458185
N 1.0  		0.24102909312036883 		0.8003377663941865  0.8231428571428571 		Uiso   ? 		N 		-0.458185
N 1.0  		0.7410745251163581 		0.8003377663941865  0.3231428571428571 		Uiso   ? 		N 		-0.458185
N 1.0  		0.7410745251163581 		0.8003377663941865  0.8231428571428571 		Uiso   ? 		N 		-0.458185
N 1.0  		0.33304805561565504 		0.04335872924160603  0.3231428571428571 		Uiso   ? 		N 		-0.418302
N 1.0  		0.33304805561565504 		0.04335872924160603  0.8231428571428571 		Uiso   ? 		N 		-0.418302
N 1.0  		0.8330934876116444 		0.04335872924160603  0.3231428571428571 		Uiso   ? 		N 		-0.418302
N 1.0  		0.8330934876116444 		0.04335872924160603  0.8231428571428571 		Uiso   ? 		N 		-0.418302
N 1.0  		0.24481588170042182 		0.09145094420827822  0.3231428571428571 		Uiso   ? 		N 		-0.274356
N 1.0  		0.24481588170042182 		0.09145094420827822  0.8231428571428571 		Uiso   ? 		N 		-0.274356
N 1.0  		0.7448613136964111 		0.09145094420827822  0.3231428571428571 		Uiso   ? 		N 		-0.274356
N 1.0  		0.7448613136964111 		0.09145094420827822  0.8231428571428571 		Uiso   ? 		N 		-0.274356
N 1.0  		0.43301927412905233 		0.24330116626840065  0.3231428571428571 		Uiso   ? 		N 		-0.419278
N 1.0  		0.43301927412905233 		0.24330116626840065  0.8231428571428571 		Uiso   ? 		N 		-0.419278
N 1.0  		0.9330647061250416 		0.24330116626840065  0.3231428571428571 		Uiso   ? 		N 		-0.419278
N 1.0  		0.9330647061250416 		0.24330116626840065  0.8231428571428571 		Uiso   ? 		N 		-0.419278
N 1.0  		0.3449764396428218 		0.29139338123507286  0.3231428571428571 		Uiso   ? 		N 		-0.273913
N 1.0  		0.3449764396428218 		0.29139338123507286  0.8231428571428571 		Uiso   ? 		N 		-0.273913
N 1.0  		0.845021871638811 		0.29139338123507286  0.3231428571428571 		Uiso   ? 		N 		-0.273913
N 1.0  		0.845021871638811 		0.29139338123507286  0.8231428571428571 		Uiso   ? 		N 		-0.273913
N 1.0  		0.033134400075463095 		0.4432436032951953  0.3231428571428571 		Uiso   ? 		N 		-0.422337
N 1.0  		0.033134400075463095 		0.4432436032951953  0.8231428571428571 		Uiso   ? 		N 		-0.422337
N 1.0  		0.5331798320714523 		0.4432436032951953  0.3231428571428571 		Uiso   ? 		N 		-0.422337
N 1.0  		0.5331798320714523 		0.4432436032951953  0.8231428571428571 		Uiso   ? 		N 		-0.422337
N 1.0  		0.44494765815621906 		0.49152515769087013  0.3231428571428571 		Uiso   ? 		N 		-0.280684
N 1.0  		0.44494765815621906 		0.49152515769087013  0.8231428571428571 		Uiso   ? 		N 		-0.280684
N 1.0  		0.9449930901522082 		0.49152515769087013  0.3231428571428571 		Uiso   ? 		N 		-0.280684
N 1.0  		0.9449930901522082 		0.49152515769087013  0.8231428571428571 		Uiso   ? 		N 		-0.280684
N 1.0  		0.13310561858886039 		0.6433753797509926  0.3231428571428571 		Uiso   ? 		N 		-0.418670
N 1.0  		0.13310561858886039 		0.6433753797509926  0.8231428571428571 		Uiso   ? 		N 		-0.418670
N 1.0  		0.6331510505848497 		0.6433753797509926  0.3231428571428571 		Uiso   ? 		N 		-0.418670
N 1.0  		0.6331510505848497 		0.6433753797509926  0.8231428571428571 		Uiso   ? 		N 		-0.418670
N 1.0  		0.04487344467362716 		0.6914675947176647  0.3231428571428571 		Uiso   ? 		N 		-0.277487
N 1.0  		0.04487344467362716 		0.6914675947176647  0.8231428571428571 		Uiso   ? 		N 		-0.277487
N 1.0  		0.5449188766696165 		0.6914675947176647  0.3231428571428571 		Uiso   ? 		N 		-0.277487
N 1.0  		0.5449188766696165 		0.6914675947176647  0.8231428571428571 		Uiso   ? 		N 		-0.277487
N 1.0  		0.2330768371022577 		0.8433178167777872  0.3231428571428571 		Uiso   ? 		N 		-0.418947
N 1.0  		0.2330768371022577 		0.8433178167777872  0.8231428571428571 		Uiso   ? 		N 		-0.418947
N 1.0  		0.733122269098247 		0.8433178167777872  0.3231428571428571 		Uiso   ? 		N 		-0.418947
N 1.0  		0.733122269098247 		0.8433178167777872  0.8231428571428571 		Uiso   ? 		N 		-0.418947
N 1.0  		0.14484466318702446 		0.8914100317444594  0.3231428571428571 		Uiso   ? 		N 		-0.275633
N 1.0  		0.14484466318702446 		0.8914100317444594  0.8231428571428571 		Uiso   ? 		N 		-0.275633
N 1.0  		0.6448900951830138 		0.8914100317444594  0.3231428571428571 		Uiso   ? 		N 		-0.275633
N 1.0  		0.6448900951830138 		0.8914100317444594  0.8231428571428571 		Uiso   ? 		N 		-0.275633
N 1.0  		0.4949332674129177 		0.09145094420827822  0.3231428571428571 		Uiso   ? 		N 		-0.275542
N 1.0  		0.4949332674129177 		0.09145094420827822  0.8231428571428571 		Uiso   ? 		N 		-0.275542
N 1.0  		0.9949786994089069 		0.09145094420827822  0.3231428571428571 		Uiso   ? 		N 		-0.275542
N 1.0  		0.9949786994089069 		0.09145094420827822  0.8231428571428571 		Uiso   ? 		N 		-0.275542
N 1.0  		0.09485905393032584 		0.29139338123507286  0.3231428571428571 		Uiso   ? 		N 		-0.277960
N 1.0  		0.09485905393032584 		0.29139338123507286  0.8231428571428571 		Uiso   ? 		N 		-0.277960
N 1.0  		0.5949044859263151 		0.29139338123507286  0.3231428571428571 		Uiso   ? 		N 		-0.277960
N 1.0  		0.5949044859263151 		0.29139338123507286  0.8231428571428571 		Uiso   ? 		N 		-0.277960
N 1.0  		0.1948302724437231 		0.4913358182618675  0.3231428571428571 		Uiso   ? 		N 		-0.278462
N 1.0  		0.1948302724437231 		0.4913358182618675  0.8231428571428571 		Uiso   ? 		N 		-0.278462
N 1.0  		0.6948757044397124 		0.4913358182618675  0.3231428571428571 		Uiso   ? 		N 		-0.278462
N 1.0  		0.6948757044397124 		0.4913358182618675  0.8231428571428571 		Uiso   ? 		N 		-0.278462
N 1.0  		0.29480149095712044 		0.691278255288662  0.3231428571428571 		Uiso   ? 		N 		-0.273688
N 1.0  		0.29480149095712044 		0.691278255288662  0.8231428571428571 		Uiso   ? 		N 		-0.273688
N 1.0  		0.7948469229531098 		0.691278255288662  0.3231428571428571 		Uiso   ? 		N 		-0.273688
N 1.0  		0.7948469229531098 		0.691278255288662  0.8231428571428571 		Uiso   ? 		N 		-0.273688
N 1.0  		0.39477270947051774 		0.8914100317444594  0.3231428571428571 		Uiso   ? 		N 		-0.276128
N 1.0  		0.39477270947051774 		0.8914100317444594  0.8231428571428571 		Uiso   ? 		N 		-0.276128
N 1.0  		0.894818141466507 		0.8914100317444594  0.3231428571428571 		Uiso   ? 		N 		-0.276128
N 1.0  		0.894818141466507 		0.8914100317444594  0.8231428571428571 		Uiso   ? 		N 		-0.276128
N 1.0  		0.3781108397182849 		0.024803465199346682  0.3231428571428571 		Uiso   ? 		N 		-0.278461
N 1.0  		0.3781108397182849 		0.024803465199346682  0.8231428571428571 		Uiso   ? 		N 		-0.278461
N 1.0  		0.8781562717142741 		0.024803465199346682  0.3231428571428571 		Uiso   ? 		N 		-0.278461
N 1.0  		0.8781562717142741 		0.024803465199346682  0.8231428571428571 		Uiso   ? 		N 		-0.278461
N 1.0  		0.4780820582316822 		0.22474590222614133  0.3231428571428571 		Uiso   ? 		N 		-0.277846
N 1.0  		0.4780820582316822 		0.22474590222614133  0.8231428571428571 		Uiso   ? 		N 		-0.277846
N 1.0  		0.9781274902276715 		0.22474590222614133  0.3231428571428571 		Uiso   ? 		N 		-0.277846
N 1.0  		0.9781274902276715 		0.22474590222614133  0.8231428571428571 		Uiso   ? 		N 		-0.277846
N 1.0  		0.07819718417809295 		0.4246883392529359  0.3231428571428571 		Uiso   ? 		N 		-0.276545
N 1.0  		0.07819718417809295 		0.4246883392529359  0.8231428571428571 		Uiso   ? 		N 		-0.276545
N 1.0  		0.5782426161740821 		0.4246883392529359  0.3231428571428571 		Uiso   ? 		N 		-0.276545
N 1.0  		0.5782426161740821 		0.4246883392529359  0.8231428571428571 		Uiso   ? 		N 		-0.276545
N 1.0  		0.17816840269149026 		0.6248201157087332  0.3231428571428571 		Uiso   ? 		N 		-0.278081
N 1.0  		0.17816840269149026 		0.6248201157087332  0.8231428571428571 		Uiso   ? 		N 		-0.278081
N 1.0  		0.6782138346874794 		0.6248201157087332  0.3231428571428571 		Uiso   ? 		N 		-0.278081
N 1.0  		0.6782138346874794 		0.6248201157087332  0.8231428571428571 		Uiso   ? 		N 		-0.278081
N 1.0  		0.27813962120488755 		0.8247625527355278  0.3231428571428571 		Uiso   ? 		N 		-0.277805
N 1.0  		0.27813962120488755 		0.8247625527355278  0.8231428571428571 		Uiso   ? 		N 		-0.277805
N 1.0  		0.7781850532008768 		0.8247625527355278  0.3231428571428571 		Uiso   ? 		N 		-0.277805
N 1.0  		0.7781850532008768 		0.8247625527355278  0.8231428571428571 		Uiso   ? 		N 		-0.277805
N 1.0  		0.45157453817131166 		0.11568639112061696  0.3231428571428571 		Uiso   ? 		N 		-0.424300
N 1.0  		0.45157453817131166 		0.11568639112061696  0.8231428571428571 		Uiso   ? 		N 		-0.424300
N 1.0  		0.9516199701673009 		0.11568639112061696  0.3231428571428571 		Uiso   ? 		N 		-0.424300
N 1.0  		0.9516199701673009 		0.11568639112061696  0.8231428571428571 		Uiso   ? 		N 		-0.424300
N 1.0  		0.05168966411772245 		0.31581816757641423  0.3231428571428571 		Uiso   ? 		N 		-0.429070
N 1.0  		0.05168966411772245 		0.31581816757641423  0.8231428571428571 		Uiso   ? 		N 		-0.429070
N 1.0  		0.5517350961137117 		0.31581816757641423  0.3231428571428571 		Uiso   ? 		N 		-0.429070
N 1.0  		0.5517350961137117 		0.31581816757641423  0.8231428571428571 		Uiso   ? 		N 		-0.429070
N 1.0  		0.15166088263111976 		0.5157606046032089  0.3231428571428571 		Uiso   ? 		N 		-0.429120
N 1.0  		0.15166088263111976 		0.5157606046032089  0.8231428571428571 		Uiso   ? 		N 		-0.429120
N 1.0  		0.651706314627109 		0.5157606046032089  0.3231428571428571 		Uiso   ? 		N 		-0.429120
N 1.0  		0.651706314627109 		0.5157606046032089  0.8231428571428571 		Uiso   ? 		N 		-0.429120
N 1.0  		0.251632101144517 		0.7157030416300034  0.3231428571428571 		Uiso   ? 		N 		-0.428561
N 1.0  		0.251632101144517 		0.7157030416300034  0.8231428571428571 		Uiso   ? 		N 		-0.428561
N 1.0  		0.7516775331405063 		0.7157030416300034  0.3231428571428571 		Uiso   ? 		N 		-0.428561
N 1.0  		0.7516775331405063 		0.7157030416300034  0.8231428571428571 		Uiso   ? 		N 		-0.428561
N 1.0  		0.35160331965791436 		0.9158348180858007  0.3231428571428571 		Uiso   ? 		N 		-0.427059
N 1.0  		0.35160331965791436 		0.9158348180858007  0.8231428571428571 		Uiso   ? 		N 		-0.427059
N 1.0  		0.8516487516539035 		0.9158348180858007  0.3231428571428571 		Uiso   ? 		N 		-0.427059
N 1.0  		0.8516487516539035 		0.9158348180858007  0.8231428571428571 		Uiso   ? 		N 		-0.427059
N 1.0  		0.49341855198089657 		0.13480967344988426  0.3231428571428571 		Uiso   ? 		N 		-0.481727
N 1.0  		0.49341855198089657 		0.13480967344988426  0.8231428571428571 		Uiso   ? 		N 		-0.481727
N 1.0  		0.9934639839768857 		0.13480967344988426  0.3231428571428571 		Uiso   ? 		N 		-0.481727
N 1.0  		0.9934639839768857 		0.13480967344988426  0.8231428571428571 		Uiso   ? 		N 		-0.481727
N 1.0  		0.09334433849830467 		0.33475211047667885  0.3231428571428571 		Uiso   ? 		N 		-0.490842
N 1.0  		0.09334433849830467 		0.33475211047667885  0.8231428571428571 		Uiso   ? 		N 		-0.490842
N 1.0  		0.5933897704942939 		0.33475211047667885  0.3231428571428571 		Uiso   ? 		N 		-0.490842
N 1.0  		0.5933897704942939 		0.33475211047667885  0.8231428571428571 		Uiso   ? 		N 		-0.490842
N 1.0  		0.19331555701170194 		0.5348838869324761  0.3231428571428571 		Uiso   ? 		N 		-0.488681
N 1.0  		0.19331555701170194 		0.5348838869324761  0.8231428571428571 		Uiso   ? 		N 		-0.488681
N 1.0  		0.6933609890076912 		0.5348838869324761  0.3231428571428571 		Uiso   ? 		N 		-0.488681
N 1.0  		0.6933609890076912 		0.5348838869324761  0.8231428571428571 		Uiso   ? 		N 		-0.488681
N 1.0  		0.29328677552509924 		0.7348263239592707  0.3231428571428571 		Uiso   ? 		N 		-0.488252
N 1.0  		0.29328677552509924 		0.7348263239592707  0.8231428571428571 		Uiso   ? 		N 		-0.488252
N 1.0  		0.7933322075210886 		0.7348263239592707  0.3231428571428571 		Uiso   ? 		N 		-0.488252
N 1.0  		0.7933322075210886 		0.7348263239592707  0.8231428571428571 		Uiso   ? 		N 		-0.488252
N 1.0  		0.39325799403849654 		0.9347687609860654  0.3231428571428571 		Uiso   ? 		N 		-0.491552
N 1.0  		0.39325799403849654 		0.9347687609860654  0.8231428571428571 		Uiso   ? 		N 		-0.491552
N 1.0  		0.8933034260344858 		0.9347687609860654  0.3231428571428571 		Uiso   ? 		N 		-0.491552
N 1.0  		0.8933034260344858 		0.9347687609860654  0.8231428571428571 		Uiso   ? 		N 		-0.491552
N 1.0  		0.24765597313546153 		0.04714551782165896  0.3231428571428571 		Uiso   ? 		N 		-0.454891
N 1.0  		0.24765597313546153 		0.04714551782165896  0.8231428571428571 		Uiso   ? 		N 		-0.454891
N 1.0  		0.7477014051314507 		0.04714551782165896  0.3231428571428571 		Uiso   ? 		N 		-0.454891
N 1.0  		0.7477014051314507 		0.04714551782165896  0.8231428571428571 		Uiso   ? 		N 		-0.454891
N 1.0  		0.34762719164885886 		0.24708795484845356  0.3231428571428571 		Uiso   ? 		N 		-0.454928
N 1.0  		0.34762719164885886 		0.24708795484845356  0.8231428571428571 		Uiso   ? 		N 		-0.454928
N 1.0  		0.8476726236448481 		0.24708795484845356  0.3231428571428571 		Uiso   ? 		N 		-0.454928
N 1.0  		0.8476726236448481 		0.24708795484845356  0.8231428571428571 		Uiso   ? 		N 		-0.454928
N 1.0  		0.4475984101622561 		0.44721973130425086  0.3231428571428571 		Uiso   ? 		N 		-0.458638
N 1.0  		0.4475984101622561 		0.44721973130425086  0.8231428571428571 		Uiso   ? 		N 		-0.458638
N 1.0  		0.9476438421582454 		0.44721973130425086  0.3231428571428571 		Uiso   ? 		N 		-0.458638
N 1.0  		0.9476438421582454 		0.44721973130425086  0.8231428571428571 		Uiso   ? 		N 		-0.458638
N 1.0  		0.04752419667966421 		0.6471621683310455  0.3231428571428571 		Uiso   ? 		N 		-0.460268
N 1.0  		0.04752419667966421 		0.6471621683310455  0.8231428571428571 		Uiso   ? 		N 		-0.460268
N 1.0  		0.5475696286756534 		0.6471621683310455  0.3231428571428571 		Uiso   ? 		N 		-0.460268
N 1.0  		0.5475696286756534 		0.6471621683310455  0.8231428571428571 		Uiso   ? 		N 		-0.460268
N 1.0  		0.14768475462206415 		0.8471046053578402  0.3231428571428571 		Uiso   ? 		N 		-0.456613
N 1.0  		0.14768475462206415 		0.8471046053578402  0.8231428571428571 		Uiso   ? 		N 		-0.456613
N 1.0  		0.6477301866180534 		0.8471046053578402  0.3231428571428571 		Uiso   ? 		N 		-0.456613
N 1.0  		0.6477301866180534 		0.8471046053578402  0.8231428571428571 		Uiso   ? 		N 		-0.456613
N 1.0  		0.2434905056974033 		0.13499901287888688  0.3231428571428571 		Uiso   ? 		N 		-0.480723
N 1.0  		0.2434905056974033 		0.13499901287888688  0.8231428571428571 		Uiso   ? 		N 		-0.480723
N 1.0  		0.7435359376933925 		0.13499901287888688  0.3231428571428571 		Uiso   ? 		N 		-0.480723
N 1.0  		0.7435359376933925 		0.13499901287888688  0.8231428571428571 		Uiso   ? 		N 		-0.480723
N 1.0  		0.3434617242108006 		0.3349414499056815  0.3231428571428571 		Uiso   ? 		N 		-0.478908
N 1.0  		0.3434617242108006 		0.3349414499056815  0.8231428571428571 		Uiso   ? 		N 		-0.478908
N 1.0  		0.8435071562067898 		0.3349414499056815  0.3231428571428571 		Uiso   ? 		N 		-0.478908
N 1.0  		0.8435071562067898 		0.3349414499056815  0.8231428571428571 		Uiso   ? 		N 		-0.478908
N 1.0  		0.44343294272419786 		0.5348838869324761  0.3231428571428571 		Uiso   ? 		N 		-0.491598
N 1.0  		0.44343294272419786 		0.5348838869324761  0.8231428571428571 		Uiso   ? 		N 		-0.491598
N 1.0  		0.943478374720187 		0.5348838869324761  0.3231428571428571 		Uiso   ? 		N 		-0.491598
N 1.0  		0.943478374720187 		0.5348838869324761  0.8231428571428571 		Uiso   ? 		N 		-0.491598
N 1.0  		0.04354806867060864 		0.7350156633882734  0.3231428571428571 		Uiso   ? 		N 		-0.486839
N 1.0  		0.04354806867060864 		0.7350156633882734  0.8231428571428571 		Uiso   ? 		N 		-0.486839
N 1.0  		0.5435935006665978 		0.7350156633882734  0.3231428571428571 		Uiso   ? 		N 		-0.486839
N 1.0  		0.5435935006665978 		0.7350156633882734  0.8231428571428571 		Uiso   ? 		N 		-0.486839
N 1.0  		0.14351928718400594 		0.934958100415068  0.3231428571428571 		Uiso   ? 		N 		-0.484264
N 1.0  		0.14351928718400594 		0.934958100415068  0.8231428571428571 		Uiso   ? 		N 		-0.484264
N 1.0  		0.6435647191799951 		0.934958100415068  0.3231428571428571 		Uiso   ? 		N 		-0.484264
N 1.0  		0.6435647191799951 		0.934958100415068  0.8231428571428571 		Uiso   ? 		N 		-0.484264
N 1.0  		0.20448658332285816 		0.07289568016601887  0.3231428571428571 		Uiso   ? 		N 		-0.372313
N 1.0  		0.20448658332285816 		0.07289568016601887  0.8231428571428571 		Uiso   ? 		N 		-0.372313
N 1.0  		0.7045320153188473 		0.07289568016601887  0.3231428571428571 		Uiso   ? 		N 		-0.372313
N 1.0  		0.7045320153188473 		0.07289568016601887  0.8231428571428571 		Uiso   ? 		N 		-0.372313
N 1.0  		0.3044578018362555 		0.2728381171928135  0.3231428571428571 		Uiso   ? 		N 		-0.371690
N 1.0  		0.3044578018362555 		0.2728381171928135  0.8231428571428571 		Uiso   ? 		N 		-0.371690
N 1.0  		0.8045032338322445 		0.2728381171928135  0.3231428571428571 		Uiso   ? 		N 		-0.371690
N 1.0  		0.8045032338322445 		0.2728381171928135  0.8231428571428571 		Uiso   ? 		N 		-0.371690
N 1.0  		0.4044290203496527 		0.4729698936486108  0.3231428571428571 		Uiso   ? 		N 		-0.373664
N 1.0  		0.4044290203496527 		0.4729698936486108  0.8231428571428571 		Uiso   ? 		N 		-0.373664
N 1.0  		0.9044744523456419 		0.4729698936486108  0.3231428571428571 		Uiso   ? 		N 		-0.373664
N 1.0  		0.9044744523456419 		0.4729698936486108  0.8231428571428571 		Uiso   ? 		N 		-0.373664
N 1.0  		0.004544146296063473 		0.6729123306754053  0.3231428571428571 		Uiso   ? 		N 		-0.374905
N 1.0  		0.004544146296063473 		0.6729123306754053  0.8231428571428571 		Uiso   ? 		N 		-0.374905
N 1.0  		0.5045895782920528 		0.6729123306754053  0.3231428571428571 		Uiso   ? 		N 		-0.374905
N 1.0  		0.5045895782920528 		0.6729123306754053  0.8231428571428571 		Uiso   ? 		N 		-0.374905
N 1.0  		0.10451536480946078 		0.8728547677022  0.3231428571428571 		Uiso   ? 		N 		-0.372020
N 1.0  		0.10451536480946078 		0.8728547677022  0.8231428571428571 		Uiso   ? 		N 		-0.372020
N 1.0  		0.60456079680545 		0.8728547677022  0.3231428571428571 		Uiso   ? 		N 		-0.372020
N 1.0  		0.60456079680545 		0.8728547677022  0.8231428571428571 		Uiso   ? 		N 		-0.372020
N 1.0  		0.08312000933216178 		0.04335872924160603  0.3231428571428571 		Uiso   ? 		N 		-0.419115
N 1.0  		0.08312000933216178 		0.04335872924160603  0.8231428571428571 		Uiso   ? 		N 		-0.419115
N 1.0  		0.583165441328151 		0.04335872924160603  0.3231428571428571 		Uiso   ? 		N 		-0.419115
N 1.0  		0.583165441328151 		0.04335872924160603  0.8231428571428571 		Uiso   ? 		N 		-0.419115
N 1.0  		0.18309122784555906 		0.24330116626840065  0.3231428571428571 		Uiso   ? 		N 		-0.416773
N 1.0  		0.18309122784555906 		0.24330116626840065  0.8231428571428571 		Uiso   ? 		N 		-0.416773
N 1.0  		0.6831366598415483 		0.24330116626840065  0.3231428571428571 		Uiso   ? 		N 		-0.416773
N 1.0  		0.6831366598415483 		0.24330116626840065  0.8231428571428571 		Uiso   ? 		N 		-0.416773
N 1.0  		0.28306244635895644 		0.4434329427241979  0.3231428571428571 		Uiso   ? 		N 		-0.414737
N 1.0  		0.28306244635895644 		0.4434329427241979  0.8231428571428571 		Uiso   ? 		N 		-0.414737
N 1.0  		0.7831078783549457 		0.4434329427241979  0.3231428571428571 		Uiso   ? 		N 		-0.414737
N 1.0  		0.7831078783549457 		0.4434329427241979  0.8231428571428571 		Uiso   ? 		N 		-0.414737
N 1.0  		0.3832230043013563 		0.6433753797509926  0.3231428571428571 		Uiso   ? 		N 		-0.420127
N 1.0  		0.3832230043013563 		0.6433753797509926  0.8231428571428571 		Uiso   ? 		N 		-0.420127
N 1.0  		0.8832684362973455 		0.6433753797509926  0.3231428571428571 		Uiso   ? 		N 		-0.420127
N 1.0  		0.8832684362973455 		0.6433753797509926  0.8231428571428571 		Uiso   ? 		N 		-0.420127
N 1.0  		0.4831942228147536 		0.8433178167777872  0.3231428571428571 		Uiso   ? 		N 		-0.420749
N 1.0  		0.4831942228147536 		0.8433178167777872  0.8231428571428571 		Uiso   ? 		N 		-0.420749
N 1.0  		0.9832396548107428 		0.8433178167777872  0.3231428571428571 		Uiso   ? 		N 		-0.420749
N 1.0  		0.9832396548107428 		0.8433178167777872  0.8231428571428571 		Uiso   ? 		N 		-0.420749
N 1.0  		0.11985185855867518 		0.06910889158596595  0.3231428571428571 		Uiso   ? 		N 		-0.536116
N 1.0  		0.11985185855867518 		0.06910889158596595  0.8231428571428571 		Uiso   ? 		N 		-0.536116
N 1.0  		0.6198972905546644 		0.06910889158596595  0.3231428571428571 		Uiso   ? 		N 		-0.536116
N 1.0  		0.6198972905546644 		0.06910889158596595  0.8231428571428571 		Uiso   ? 		N 		-0.536116
N 1.0  		0.21982307707207246 		0.2692406680417632  0.3231428571428571 		Uiso   ? 		N 		-0.530294
N 1.0  		0.21982307707207246 		0.2692406680417632  0.8231428571428571 		Uiso   ? 		N 		-0.530294
N 1.0  		0.7198685090680617 		0.2692406680417632  0.3231428571428571 		Uiso   ? 		N 		-0.530294
N 1.0  		0.7198685090680617 		0.2692406680417632  0.8231428571428571 		Uiso   ? 		N 		-0.530294
N 1.0  		0.3197942955854698 		0.46918310506855787  0.3231428571428571 		Uiso   ? 		N 		-0.533172
N 1.0  		0.3197942955854698 		0.46918310506855787  0.8231428571428571 		Uiso   ? 		N 		-0.533172
N 1.0  		0.8198397275814591 		0.46918310506855787  0.3231428571428571 		Uiso   ? 		N 		-0.533172
N 1.0  		0.8198397275814591 		0.46918310506855787  0.8231428571428571 		Uiso   ? 		N 		-0.533172
N 1.0  		0.4197655140988671 		0.6691255420953525  0.3231428571428571 		Uiso   ? 		N 		-0.535342
N 1.0  		0.4197655140988671 		0.6691255420953525  0.8231428571428571 		Uiso   ? 		N 		-0.535342
N 1.0  		0.9198109460948563 		0.6691255420953525  0.3231428571428571 		Uiso   ? 		N 		-0.535342
N 1.0  		0.9198109460948563 		0.6691255420953525  0.8231428571428571 		Uiso   ? 		N 		-0.535342
N 1.0  		0.01988064004527782 		0.8690679791221471  0.3231428571428571 		Uiso   ? 		N 		-0.533534
N 1.0  		0.01988064004527782 		0.8690679791221471  0.8231428571428571 		Uiso   ? 		N 		-0.533534
N 1.0  		0.5199260720412671 		0.8690679791221471  0.3231428571428571 		Uiso   ? 		N 		-0.533534
N 1.0  		0.5199260720412671 		0.8690679791221471  0.8231428571428571 		Uiso   ? 		N 		-0.533534
N 1.0  		0.07573577160105857 		0.08652811905420942  0.3231428571428571 		Uiso   ? 		N 		-0.419811
N 1.0  		0.07573577160105857 		0.08652811905420942  0.8231428571428571 		Uiso   ? 		N 		-0.419811
N 1.0  		0.5757812035970478 		0.08652811905420942  0.3231428571428571 		Uiso   ? 		N 		-0.419811
N 1.0  		0.5757812035970478 		0.08652811905420942  0.8231428571428571 		Uiso   ? 		N 		-0.419811
N 1.0  		0.17570699011445587 		0.286470556081004  0.3231428571428571 		Uiso   ? 		N 		-0.421020
N 1.0  		0.17570699011445587 		0.286470556081004  0.8231428571428571 		Uiso   ? 		N 		-0.421020
N 1.0  		0.6757524221104451 		0.286470556081004  0.3231428571428571 		Uiso   ? 		N 		-0.421020
N 1.0  		0.6757524221104451 		0.286470556081004  0.8231428571428571 		Uiso   ? 		N 		-0.421020
N 1.0  		0.27567820862785314 		0.4866023325368013  0.3231428571428571 		Uiso   ? 		N 		-0.419754
N 1.0  		0.27567820862785314 		0.4866023325368013  0.8231428571428571 		Uiso   ? 		N 		-0.419754
N 1.0  		0.7757236406238425 		0.4866023325368013  0.3231428571428571 		Uiso   ? 		N 		-0.419754
N 1.0  		0.7757236406238425 		0.4866023325368013  0.8231428571428571 		Uiso   ? 		N 		-0.419754
N 1.0  		0.37564942714125044 		0.6865447695635959  0.3231428571428571 		Uiso   ? 		N 		-0.419532
N 1.0  		0.37564942714125044 		0.6865447695635959  0.8231428571428571 		Uiso   ? 		N 		-0.419532
N 1.0  		0.8756948591372397 		0.6865447695635959  0.3231428571428571 		Uiso   ? 		N 		-0.419532
N 1.0  		0.8756948591372397 		0.6865447695635959  0.8231428571428571 		Uiso   ? 		N 		-0.419532
N 1.0  		0.47562064565464773 		0.8864872065903906  0.3231428571428571 		Uiso   ? 		N 		-0.415250
N 1.0  		0.47562064565464773 		0.8864872065903906  0.8231428571428571 		Uiso   ? 		N 		-0.415250
N 1.0  		0.975666077650637 		0.8864872065903906  0.3231428571428571 		Uiso   ? 		N 		-0.415250
N 1.0  		0.975666077650637 		0.8864872065903906  0.8231428571428571 		Uiso   ? 		N 		-0.415250
N 1.0  		0.03521713379449223 		0.11133158425355609  0.3231428571428571 		Uiso   ? 		N 		-0.536657
N 1.0  		0.03521713379449223 		0.11133158425355609  0.8231428571428571 		Uiso   ? 		N 		-0.536657
N 1.0  		0.5352625657904815 		0.11133158425355609  0.3231428571428571 		Uiso   ? 		N 		-0.536657
N 1.0  		0.5352625657904815 		0.11133158425355609  0.8231428571428571 		Uiso   ? 		N 		-0.536657
N 1.0  		0.13537769173689215 		0.3112740212803507  0.3231428571428571 		Uiso   ? 		N 		-0.535628
N 1.0  		0.13537769173689215 		0.3112740212803507  0.8231428571428571 		Uiso   ? 		N 		-0.535628
N 1.0  		0.6354231237328813 		0.3112740212803507  0.3231428571428571 		Uiso   ? 		N 		-0.535628
N 1.0  		0.6354231237328813 		0.3112740212803507  0.8231428571428571 		Uiso   ? 		N 		-0.535628
N 1.0  		0.2353489102502895 		0.511405797736148  0.3231428571428571 		Uiso   ? 		N 		-0.534131
N 1.0  		0.2353489102502895 		0.511405797736148  0.8231428571428571 		Uiso   ? 		N 		-0.534131
N 1.0  		0.7353943422462786 		0.511405797736148  0.3231428571428571 		Uiso   ? 		N 		-0.534131
N 1.0  		0.7353943422462786 		0.511405797736148  0.8231428571428571 		Uiso   ? 		N 		-0.534131
N 1.0  		0.3353201287636867 		0.7113482347629426  0.3231428571428571 		Uiso   ? 		N 		-0.531208
N 1.0  		0.3353201287636867 		0.7113482347629426  0.8231428571428571 		Uiso   ? 		N 		-0.531208
N 1.0  		0.835365560759676 		0.7113482347629426  0.3231428571428571 		Uiso   ? 		N 		-0.531208
N 1.0  		0.835365560759676 		0.7113482347629426  0.8231428571428571 		Uiso   ? 		N 		-0.531208
N 1.0  		0.4352913472770841 		0.9112906717897372  0.3231428571428571 		Uiso   ? 		N 		-0.536414
N 1.0  		0.4352913472770841 		0.9112906717897372  0.8231428571428571 		Uiso   ? 		N 		-0.536414
N 1.0  		0.9353367792730732 		0.9112906717897372  0.3231428571428571 		Uiso   ? 		N 		-0.536414
N 1.0  		0.9353367792730732 		0.9112906717897372  0.8231428571428571 		Uiso   ? 		N 		-0.536414
N 1.0  		0.09107226535027292 		0.00037867885800529287  0.3231428571428571 		Uiso   ? 		N 		-0.458962
N 1.0  		0.09107226535027292 		0.00037867885800529287  0.8231428571428571 		Uiso   ? 		N 		-0.458962
N 1.0  		0.5911176973462621 		0.00037867885800529287  0.3231428571428571 		Uiso   ? 		N 		-0.458962
N 1.0  		0.5911176973462621 		0.00037867885800529287  0.8231428571428571 		Uiso   ? 		N 		-0.458962
N 1.0  		0.19104348386367023 		0.20051045531380254  0.3231428571428571 		Uiso   ? 		N 		-0.458880
N 1.0  		0.19104348386367023 		0.20051045531380254  0.8231428571428571 		Uiso   ? 		N 		-0.458880
N 1.0  		0.6910889158596594 		0.20051045531380254  0.3231428571428571 		Uiso   ? 		N 		-0.458880
N 1.0  		0.6910889158596594 		0.20051045531380254  0.8231428571428571 		Uiso   ? 		N 		-0.458880
N 1.0  		0.29101470237706756 		0.4004528923405972  0.3231428571428571 		Uiso   ? 		N 		-0.454308
N 1.0  		0.29101470237706756 		0.4004528923405972  0.8231428571428571 		Uiso   ? 		N 		-0.454308
N 1.0  		0.7910601343730568 		0.4004528923405972  0.3231428571428571 		Uiso   ? 		N 		-0.454308
N 1.0  		0.7910601343730568 		0.4004528923405972  0.8231428571428571 		Uiso   ? 		N 		-0.454308
N 1.0  		0.3911752603194674 		0.6003953293673918  0.3231428571428571 		Uiso   ? 		N 		-0.458992
N 1.0  		0.3911752603194674 		0.6003953293673918  0.8231428571428571 		Uiso   ? 		N 		-0.458992
N 1.0  		0.8912206923154566 		0.6003953293673918  0.3231428571428571 		Uiso   ? 		N 		-0.458992
N 1.0  		0.8912206923154566 		0.6003953293673918  0.8231428571428571 		Uiso   ? 		N 		-0.458992
N 1.0  		0.4911464788328647 		0.8003377663941865  0.3231428571428571 		Uiso   ? 		N 		-0.457916
N 1.0  		0.4911464788328647 		0.8003377663941865  0.8231428571428571 		Uiso   ? 		N 		-0.457916
N 1.0  		0.991191910828854 		0.8003377663941865  0.3231428571428571 		Uiso   ? 		N 		-0.457916
N 1.0  		0.991191910828854 		0.8003377663941865  0.8231428571428571 		Uiso   ? 		N 		-0.457916
N 1.0  		0.20164649188781844 		0.11587573054961961  0.3231428571428571 		Uiso   ? 		N 		-0.425839
N 1.0  		0.20164649188781844 		0.11587573054961961  0.8231428571428571 		Uiso   ? 		N 		-0.425839
N 1.0  		0.7016919238838076 		0.11587573054961961  0.3231428571428571 		Uiso   ? 		N 		-0.425839
N 1.0  		0.7016919238838076 		0.11587573054961961  0.8231428571428571 		Uiso   ? 		N 		-0.425839
N 1.0  		0.30161771040121577 		0.31581816757641423  0.3231428571428571 		Uiso   ? 		N 		-0.425059
N 1.0  		0.30161771040121577 		0.31581816757641423  0.8231428571428571 		Uiso   ? 		N 		-0.425059
N 1.0  		0.8016631423972049 		0.31581816757641423  0.3231428571428571 		Uiso   ? 		N 		-0.425059
N 1.0  		0.8016631423972049 		0.31581816757641423  0.8231428571428571 		Uiso   ? 		N 		-0.425059
N 1.0  		0.40177826834361563 		0.5159499440322115  0.3231428571428571 		Uiso   ? 		N 		-0.430630
N 1.0  		0.40177826834361563 		0.5159499440322115  0.8231428571428571 		Uiso   ? 		N 		-0.430630
N 1.0  		0.9018237003396049 		0.5159499440322115  0.3231428571428571 		Uiso   ? 		N 		-0.430630
N 1.0  		0.9018237003396049 		0.5159499440322115  0.8231428571428571 		Uiso   ? 		N 		-0.430630
N 1.0  		0.001704054861023774 		0.7158923810590061  0.3231428571428571 		Uiso   ? 		N 		-0.427136
N 1.0  		0.001704054861023774 		0.7158923810590061  0.8231428571428571 		Uiso   ? 		N 		-0.427136
N 1.0  		0.501749486857013 		0.7158923810590061  0.3231428571428571 		Uiso   ? 		N 		-0.427136
N 1.0  		0.501749486857013 		0.7158923810590061  0.8231428571428571 		Uiso   ? 		N 		-0.427136
N 1.0  		0.10167527337442107 		0.9158348180858007  0.3231428571428571 		Uiso   ? 		N 		-0.430572
N 1.0  		0.10167527337442107 		0.9158348180858007  0.8231428571428571 		Uiso   ? 		N 		-0.430572
N 1.0  		0.6017207053704102 		0.9158348180858007  0.3231428571428571 		Uiso   ? 		N 		-0.430572
N 1.0  		0.6017207053704102 		0.9158348180858007  0.8231428571428571 		Uiso   ? 		N 		-0.430572
N 1.0  		0.20107847360081052 		0.15809842321720977  0.3231428571428571 		Uiso   ? 		N 		-0.345527
N 1.0  		0.20107847360081052 		0.15809842321720977  0.8231428571428571 		Uiso   ? 		N 		-0.345527
N 1.0  		0.7011239055967997 		0.15809842321720977  0.3231428571428571 		Uiso   ? 		N 		-0.345527
N 1.0  		0.7011239055967997 		0.15809842321720977  0.8231428571428571 		Uiso   ? 		N 		-0.345527
N 1.0  		0.30104969211420785 		0.358230199673007  0.3231428571428571 		Uiso   ? 		N 		-0.347772
N 1.0  		0.30104969211420785 		0.358230199673007  0.8231428571428571 		Uiso   ? 		N 		-0.347772
N 1.0  		0.801095124110197 		0.358230199673007  0.3231428571428571 		Uiso   ? 		N 		-0.347772
N 1.0  		0.801095124110197 		0.358230199673007  0.8231428571428571 		Uiso   ? 		N 		-0.347772
N 1.0  		0.40102091062760503 		0.5581726366998017  0.3231428571428571 		Uiso   ? 		N 		-0.351188
N 1.0  		0.40102091062760503 		0.5581726366998017  0.8231428571428571 		Uiso   ? 		N 		-0.351188
N 1.0  		0.9010663426235944 		0.5581726366998017  0.3231428571428571 		Uiso   ? 		N 		-0.351188
N 1.0  		0.9010663426235944 		0.5581726366998017  0.8231428571428571 		Uiso   ? 		N 		-0.351188
N 1.0  		0.0011360365740158323 		0.7581150737265961  0.3231428571428571 		Uiso   ? 		N 		-0.349382
N 1.0  		0.0011360365740158323 		0.7581150737265961  0.8231428571428571 		Uiso   ? 		N 		-0.349382
N 1.0  		0.501181468570005 		0.7581150737265961  0.3231428571428571 		Uiso   ? 		N 		-0.349382
N 1.0  		0.501181468570005 		0.7581150737265961  0.8231428571428571 		Uiso   ? 		N 		-0.349382
N 1.0  		0.10110725508741314 		0.9580575107533909  0.3231428571428571 		Uiso   ? 		N 		-0.347021
N 1.0  		0.10110725508741314 		0.9580575107533909  0.8231428571428571 		Uiso   ? 		N 		-0.347021
N 1.0  		0.6011526870834022 		0.9580575107533909  0.3231428571428571 		Uiso   ? 		N 		-0.347021
N 1.0  		0.6011526870834022 		0.9580575107533909  0.8231428571428571 		Uiso   ? 		N 		-0.347021
C 1.0  		0.29783092182116283 		0.08785349505722795  0.42314285714285715 		Uiso   ? 		C 		0.552439
C 1.0  		0.29783092182116283 		0.08785349505722795  0.9231428571428572 		Uiso   ? 		C 		0.552439
C 1.0  		0.797876353817152 		0.08785349505722795  0.42314285714285715 		Uiso   ? 		C 		0.552439
C 1.0  		0.797876353817152 		0.08785349505722795  0.9231428571428572 		Uiso   ? 		C 		0.552439
C 1.0  		0.39780214033456013 		0.28779593208402254  0.42314285714285715 		Uiso   ? 		C 		0.551985
C 1.0  		0.39780214033456013 		0.28779593208402254  0.9231428571428572 		Uiso   ? 		C 		0.551985
C 1.0  		0.8978475723305493 		0.28779593208402254  0.42314285714285715 		Uiso   ? 		C 		0.551985
C 1.0  		0.8978475723305493 		0.28779593208402254  0.9231428571428572 		Uiso   ? 		C 		0.551985
C 1.0  		0.49777335884795737 		0.4879277085398198  0.42314285714285715 		Uiso   ? 		C 		0.553993
C 1.0  		0.49777335884795737 		0.4879277085398198  0.9231428571428572 		Uiso   ? 		C 		0.553993
C 1.0  		0.9978187908439465 		0.4879277085398198  0.42314285714285715 		Uiso   ? 		C 		0.553993
C 1.0  		0.9978187908439465 		0.4879277085398198  0.9231428571428572 		Uiso   ? 		C 		0.553993
C 1.0  		0.09788848479436817 		0.6878701455666144  0.42314285714285715 		Uiso   ? 		C 		0.553834
C 1.0  		0.09788848479436817 		0.6878701455666144  0.9231428571428572 		Uiso   ? 		C 		0.553834
C 1.0  		0.5979339167903573 		0.6878701455666144  0.42314285714285715 		Uiso   ? 		C 		0.553834
C 1.0  		0.5979339167903573 		0.6878701455666144  0.9231428571428572 		Uiso   ? 		C 		0.553834
C 1.0  		0.19785970330776545 		0.8878125825934091  0.42314285714285715 		Uiso   ? 		C 		0.557361
C 1.0  		0.19785970330776545 		0.8878125825934091  0.9231428571428572 		Uiso   ? 		C 		0.557361
C 1.0  		0.6979051353037548 		0.8878125825934091  0.42314285714285715 		Uiso   ? 		C 		0.557361
C 1.0  		0.6979051353037548 		0.8878125825934091  0.9231428571428572 		Uiso   ? 		C 		0.557361
C 1.0  		0.4703191416425737 		0.05112164583071454  0.42314285714285715 		Uiso   ? 		C 		0.472963
C 1.0  		0.4703191416425737 		0.05112164583071454  0.9231428571428572 		Uiso   ? 		C 		0.472963
C 1.0  		0.9703645736385629 		0.05112164583071454  0.42314285714285715 		Uiso   ? 		C 		0.472963
C 1.0  		0.9703645736385629 		0.05112164583071454  0.9231428571428572 		Uiso   ? 		C 		0.472963
C 1.0  		0.0702449281599818 		0.2512534222865118  0.42314285714285715 		Uiso   ? 		C 		0.476572
C 1.0  		0.0702449281599818 		0.2512534222865118  0.9231428571428572 		Uiso   ? 		C 		0.476572
C 1.0  		0.570290360155971 		0.2512534222865118  0.42314285714285715 		Uiso   ? 		C 		0.476572
C 1.0  		0.570290360155971 		0.2512534222865118  0.9231428571428572 		Uiso   ? 		C 		0.476572
C 1.0  		0.17021614667337912 		0.4511958593133064  0.42314285714285715 		Uiso   ? 		C 		0.470554
C 1.0  		0.17021614667337912 		0.4511958593133064  0.9231428571428572 		Uiso   ? 		C 		0.470554
C 1.0  		0.6702615786693683 		0.4511958593133064  0.42314285714285715 		Uiso   ? 		C 		0.470554
C 1.0  		0.6702615786693683 		0.4511958593133064  0.9231428571428572 		Uiso   ? 		C 		0.470554
C 1.0  		0.270376704615779 		0.651138296340101  0.42314285714285715 		Uiso   ? 		C 		0.471706
C 1.0  		0.270376704615779 		0.651138296340101  0.9231428571428572 		Uiso   ? 		C 		0.471706
C 1.0  		0.7704221366117683 		0.651138296340101  0.42314285714285715 		Uiso   ? 		C 		0.471706
C 1.0  		0.7704221366117683 		0.651138296340101  0.9231428571428572 		Uiso   ? 		C 		0.471706
C 1.0  		0.37034792312917636 		0.8510807333668957  0.42314285714285715 		Uiso   ? 		C 		0.472892
C 1.0  		0.37034792312917636 		0.8510807333668957  0.9231428571428572 		Uiso   ? 		C 		0.472892
C 1.0  		0.8703933551251657 		0.8510807333668957  0.42314285714285715 		Uiso   ? 		C 		0.472892
C 1.0  		0.8703933551251657 		0.8510807333668957  0.9231428571428572 		Uiso   ? 		C 		0.472892
C 1.0  		0.4301791826940126 		0.028211574921394315  0.42314285714285715 		Uiso   ? 		C 		0.518042
C 1.0  		0.4301791826940126 		0.028211574921394315  0.9231428571428572 		Uiso   ? 		C 		0.518042
C 1.0  		0.930224614690002 		0.028211574921394315  0.42314285714285715 		Uiso   ? 		C 		0.518042
C 1.0  		0.930224614690002 		0.028211574921394315  0.9231428571428572 		Uiso   ? 		C 		0.518042
C 1.0  		0.03010496921142077 		0.22834335137719158  0.42314285714285715 		Uiso   ? 		C 		0.520513
C 1.0  		0.03010496921142077 		0.22834335137719158  0.9231428571428572 		Uiso   ? 		C 		0.520513
C 1.0  		0.53015040120741 		0.22834335137719158  0.42314285714285715 		Uiso   ? 		C 		0.520513
C 1.0  		0.53015040120741 		0.22834335137719158  0.9231428571428572 		Uiso   ? 		C 		0.520513
C 1.0  		0.1302655271538207 		0.42828578840398623  0.42314285714285715 		Uiso   ? 		C 		0.519690
C 1.0  		0.1302655271538207 		0.42828578840398623  0.9231428571428572 		Uiso   ? 		C 		0.519690
C 1.0  		0.63031095914981 		0.42828578840398623  0.42314285714285715 		Uiso   ? 		C 		0.519690
C 1.0  		0.63031095914981 		0.42828578840398623  0.9231428571428572 		Uiso   ? 		C 		0.519690
C 1.0  		0.23023674566721802 		0.6282282254307808  0.42314285714285715 		Uiso   ? 		C 		0.520464
C 1.0  		0.23023674566721802 		0.6282282254307808  0.9231428571428572 		Uiso   ? 		C 		0.520464
C 1.0  		0.7302821776632072 		0.6282282254307808  0.42314285714285715 		Uiso   ? 		C 		0.520464
C 1.0  		0.7302821776632072 		0.6282282254307808  0.9231428571428572 		Uiso   ? 		C 		0.520464
C 1.0  		0.3302079641806153 		0.8283600018865781  0.42314285714285715 		Uiso   ? 		C 		0.519114
C 1.0  		0.3302079641806153 		0.8283600018865781  0.9231428571428572 		Uiso   ? 		C 		0.519114
C 1.0  		0.8302533961766045 		0.8283600018865781  0.42314285714285715 		Uiso   ? 		C 		0.519114
C 1.0  		0.8302533961766045 		0.8283600018865781  0.9231428571428572 		Uiso   ? 		C 		0.519114
C 1.0  		0.010034989737140256 		0.06778351558294742  0.42314285714285715 		Uiso   ? 		C 		0.493279
C 1.0  		0.010034989737140256 		0.06778351558294742  0.9231428571428572 		Uiso   ? 		C 		0.493279
C 1.0  		0.5100804217331295 		0.06778351558294742  0.42314285714285715 		Uiso   ? 		C 		0.493279
C 1.0  		0.5100804217331295 		0.06778351558294742  0.9231428571428572 		Uiso   ? 		C 		0.493279
C 1.0  		0.11000620825053754 		0.267725952609742  0.42314285714285715 		Uiso   ? 		C 		0.498576
C 1.0  		0.11000620825053754 		0.267725952609742  0.9231428571428572 		Uiso   ? 		C 		0.498576
C 1.0  		0.6100516402465268 		0.267725952609742  0.42314285714285715 		Uiso   ? 		C 		0.498576
C 1.0  		0.6100516402465268 		0.267725952609742  0.9231428571428572 		Uiso   ? 		C 		0.498576
C 1.0  		0.20997742676393485 		0.4676683896365367  0.42314285714285715 		Uiso   ? 		C 		0.499429
C 1.0  		0.20997742676393485 		0.4676683896365367  0.9231428571428572 		Uiso   ? 		C 		0.499429
C 1.0  		0.7100228587599241 		0.4676683896365367  0.42314285714285715 		Uiso   ? 		C 		0.499429
C 1.0  		0.7100228587599241 		0.4676683896365367  0.9231428571428572 		Uiso   ? 		C 		0.499429
C 1.0  		0.3099486452773321 		0.667800166092334  0.42314285714285715 		Uiso   ? 		C 		0.494795
C 1.0  		0.3099486452773321 		0.667800166092334  0.9231428571428572 		Uiso   ? 		C 		0.494795
C 1.0  		0.8099940772733213 		0.667800166092334  0.42314285714285715 		Uiso   ? 		C 		0.494795
C 1.0  		0.8099940772733213 		0.667800166092334  0.9231428571428572 		Uiso   ? 		C 		0.494795
C 1.0  		0.4099198637907295 		0.8677426031191285  0.42314285714285715 		Uiso   ? 		C 		0.498637
C 1.0  		0.4099198637907295 		0.8677426031191285  0.9231428571428572 		Uiso   ? 		C 		0.498637
C 1.0  		0.9099652957867187 		0.8677426031191285  0.42314285714285715 		Uiso   ? 		C 		0.498637
C 1.0  		0.9099652957867187 		0.8677426031191285  0.9231428571428572 		Uiso   ? 		C 		0.498637
C 1.0  		0.18025113641051937 		0.02840091435039696  0.42314285714285715 		Uiso   ? 		C 		0.520763
C 1.0  		0.18025113641051937 		0.02840091435039696  0.9231428571428572 		Uiso   ? 		C 		0.520763
C 1.0  		0.6802965684065085 		0.02840091435039696  0.42314285714285715 		Uiso   ? 		C 		0.520763
C 1.0  		0.6802965684065085 		0.02840091435039696  0.9231428571428572 		Uiso   ? 		C 		0.520763
C 1.0  		0.2802223549239167 		0.22834335137719158  0.42314285714285715 		Uiso   ? 		C 		0.517159
C 1.0  		0.2802223549239167 		0.22834335137719158  0.9231428571428572 		Uiso   ? 		C 		0.517159
C 1.0  		0.780267786919906 		0.22834335137719158  0.42314285714285715 		Uiso   ? 		C 		0.517159
C 1.0  		0.780267786919906 		0.22834335137719158  0.9231428571428572 		Uiso   ? 		C 		0.517159
C 1.0  		0.380193573437314 		0.42828578840398623  0.42314285714285715 		Uiso   ? 		C 		0.517651
C 1.0  		0.380193573437314 		0.42828578840398623  0.9231428571428572 		Uiso   ? 		C 		0.517651
C 1.0  		0.8802390054333032 		0.42828578840398623  0.42314285714285715 		Uiso   ? 		C 		0.517651
C 1.0  		0.8802390054333032 		0.42828578840398623  0.9231428571428572 		Uiso   ? 		C 		0.517651
C 1.0  		0.48016479195071127 		0.6284175648597835  0.42314285714285715 		Uiso   ? 		C 		0.522393
C 1.0  		0.48016479195071127 		0.6284175648597835  0.9231428571428572 		Uiso   ? 		C 		0.522393
C 1.0  		0.9802102239467004 		0.6284175648597835  0.42314285714285715 		Uiso   ? 		C 		0.522393
C 1.0  		0.9802102239467004 		0.6284175648597835  0.9231428571428572 		Uiso   ? 		C 		0.522393
C 1.0  		0.08027991789712202 		0.8283600018865781  0.42314285714285715 		Uiso   ? 		C 		0.518715
C 1.0  		0.08027991789712202 		0.8283600018865781  0.9231428571428572 		Uiso   ? 		C 		0.518715
C 1.0  		0.5803253498931112 		0.8283600018865781  0.42314285714285715 		Uiso   ? 		C 		0.518715
C 1.0  		0.5803253498931112 		0.8283600018865781  0.9231428571428572 		Uiso   ? 		C 		0.518715
C 1.0  		0.14692739690605364 		0.0032187702930449895  0.42314285714285715 		Uiso   ? 		C 		0.489498
C 1.0  		0.14692739690605364 		0.0032187702930449895  0.9231428571428572 		Uiso   ? 		C 		0.489498
C 1.0  		0.6469728289020428 		0.0032187702930449895  0.42314285714285715 		Uiso   ? 		C 		0.489498
C 1.0  		0.6469728289020428 		0.0032187702930449895  0.9231428571428572 		Uiso   ? 		C 		0.489498
C 1.0  		0.24689861541945093 		0.20335054674884226  0.42314285714285715 		Uiso   ? 		C 		0.485987
C 1.0  		0.24689861541945093 		0.20335054674884226  0.9231428571428572 		Uiso   ? 		C 		0.485987
C 1.0  		0.7469440474154401 		0.20335054674884226  0.42314285714285715 		Uiso   ? 		C 		0.485987
C 1.0  		0.7469440474154401 		0.20335054674884226  0.9231428571428572 		Uiso   ? 		C 		0.485987
C 1.0  		0.3470591733618509 		0.4032929837756369  0.42314285714285715 		Uiso   ? 		C 		0.489359
C 1.0  		0.3470591733618509 		0.4032929837756369  0.9231428571428572 		Uiso   ? 		C 		0.489359
C 1.0  		0.8471046053578402 		0.4032929837756369  0.42314285714285715 		Uiso   ? 		C 		0.489359
C 1.0  		0.8471046053578402 		0.4032929837756369  0.9231428571428572 		Uiso   ? 		C 		0.489359
C 1.0  		0.4470303918752482 		0.6032354208024315  0.42314285714285715 		Uiso   ? 		C 		0.490973
C 1.0  		0.4470303918752482 		0.6032354208024315  0.9231428571428572 		Uiso   ? 		C 		0.490973
C 1.0  		0.9470758238712373 		0.6032354208024315  0.42314285714285715 		Uiso   ? 		C 		0.490973
C 1.0  		0.9470758238712373 		0.6032354208024315  0.9231428571428572 		Uiso   ? 		C 		0.490973
C 1.0  		0.04695617839265626 		0.8031778578292261  0.42314285714285715 		Uiso   ? 		C 		0.490652
C 1.0  		0.04695617839265626 		0.8031778578292261  0.9231428571428572 		Uiso   ? 		C 		0.490652
C 1.0  		0.5470016103886455 		0.8031778578292261  0.42314285714285715 		Uiso   ? 		C 		0.490652
C 1.0  		0.5470016103886455 		0.8031778578292261  0.9231428571428572 		Uiso   ? 		C 		0.490652
C 1.0  		0.2582589811596097 		0.11303563911457991  0.42314285714285715 		Uiso   ? 		C 		0.517443
C 1.0  		0.2582589811596097 		0.11303563911457991  0.9231428571428572 		Uiso   ? 		C 		0.517443
C 1.0  		0.7583044131555989 		0.11303563911457991  0.42314285714285715 		Uiso   ? 		C 		0.517443
C 1.0  		0.7583044131555989 		0.11303563911457991  0.9231428571428572 		Uiso   ? 		C 		0.517443
C 1.0  		0.358230199673007 		0.3129780761413745  0.42314285714285715 		Uiso   ? 		C 		0.519163
C 1.0  		0.358230199673007 		0.3129780761413745  0.9231428571428572 		Uiso   ? 		C 		0.519163
C 1.0  		0.8582756316689963 		0.3129780761413745  0.42314285714285715 		Uiso   ? 		C 		0.519163
C 1.0  		0.8582756316689963 		0.3129780761413745  0.9231428571428572 		Uiso   ? 		C 		0.519163
C 1.0  		0.4583907576154069 		0.5131098525971718  0.42314285714285715 		Uiso   ? 		C 		0.525852
C 1.0  		0.4583907576154069 		0.5131098525971718  0.9231428571428572 		Uiso   ? 		C 		0.525852
C 1.0  		0.9584361896113962 		0.5131098525971718  0.42314285714285715 		Uiso   ? 		C 		0.525852
C 1.0  		0.9584361896113962 		0.5131098525971718  0.9231428571428572 		Uiso   ? 		C 		0.525852
C 1.0  		0.058316544132815056 		0.7130522896239664  0.42314285714285715 		Uiso   ? 		C 		0.519380
C 1.0  		0.058316544132815056 		0.7130522896239664  0.9231428571428572 		Uiso   ? 		C 		0.519380
C 1.0  		0.5583619761288042 		0.7130522896239664  0.42314285714285715 		Uiso   ? 		C 		0.519380
C 1.0  		0.5583619761288042 		0.7130522896239664  0.9231428571428572 		Uiso   ? 		C 		0.519380
C 1.0  		0.15828776264621236 		0.9129947266507611  0.42314285714285715 		Uiso   ? 		C 		0.521262
C 1.0  		0.15828776264621236 		0.9129947266507611  0.9231428571428572 		Uiso   ? 		C 		0.521262
C 1.0  		0.6583331946422015 		0.9129947266507611  0.42314285714285715 		Uiso   ? 		C 		0.521262
C 1.0  		0.6583331946422015 		0.9129947266507611  0.9231428571428572 		Uiso   ? 		C 		0.521262
C 1.0  		0.3968554431895469 		0.0032187702930449895  0.42314285714285715 		Uiso   ? 		C 		0.489709
C 1.0  		0.3968554431895469 		0.0032187702930449895  0.9231428571428572 		Uiso   ? 		C 		0.489709
C 1.0  		0.8969008751855361 		0.0032187702930449895  0.42314285714285715 		Uiso   ? 		C 		0.489709
C 1.0  		0.8969008751855361 		0.0032187702930449895  0.9231428571428572 		Uiso   ? 		C 		0.489709
C 1.0  		0.4968266617029442 		0.2031612073198396  0.42314285714285715 		Uiso   ? 		C 		0.486004
C 1.0  		0.4968266617029442 		0.2031612073198396  0.9231428571428572 		Uiso   ? 		C 		0.486004
C 1.0  		0.9968720936989334 		0.2031612073198396  0.42314285714285715 		Uiso   ? 		C 		0.486004
C 1.0  		0.9968720936989334 		0.2031612073198396  0.9231428571428572 		Uiso   ? 		C 		0.486004
C 1.0  		0.09694178764935495 		0.40310364434663426  0.42314285714285715 		Uiso   ? 		C 		0.492148
C 1.0  		0.09694178764935495 		0.40310364434663426  0.9231428571428572 		Uiso   ? 		C 		0.492148
C 1.0  		0.5969872196453442 		0.40310364434663426  0.42314285714285715 		Uiso   ? 		C 		0.492148
C 1.0  		0.5969872196453442 		0.40310364434663426  0.9231428571428572 		Uiso   ? 		C 		0.492148
C 1.0  		0.19691300616275226 		0.6032354208024315  0.42314285714285715 		Uiso   ? 		C 		0.486662
C 1.0  		0.19691300616275226 		0.6032354208024315  0.9231428571428572 		Uiso   ? 		C 		0.486662
C 1.0  		0.6969584381587415 		0.6032354208024315  0.42314285714285715 		Uiso   ? 		C 		0.486662
C 1.0  		0.6969584381587415 		0.6032354208024315  0.9231428571428572 		Uiso   ? 		C 		0.486662
C 1.0  		0.29688422467614956 		0.8031778578292261  0.42314285714285715 		Uiso   ? 		C 		0.490337
C 1.0  		0.29688422467614956 		0.8031778578292261  0.9231428571428572 		Uiso   ? 		C 		0.490337
C 1.0  		0.7969296566721388 		0.8031778578292261  0.42314285714285715 		Uiso   ? 		C 		0.490337
C 1.0  		0.7969296566721388 		0.8031778578292261  0.9231428571428572 		Uiso   ? 		C 		0.490337
C 1.0  		0.34365106363980324 		0.06494342414790773  0.42314285714285715 		Uiso   ? 		C 		0.552274
C 1.0  		0.34365106363980324 		0.06494342414790773  0.9231428571428572 		Uiso   ? 		C 		0.552274
C 1.0  		0.8436964956357925 		0.06494342414790773  0.42314285714285715 		Uiso   ? 		C 		0.552274
C 1.0  		0.8436964956357925 		0.06494342414790773  0.9231428571428572 		Uiso   ? 		C 		0.552274
C 1.0  		0.44362228215320054 		0.26488586117470236  0.42314285714285715 		Uiso   ? 		C 		0.554311
C 1.0  		0.44362228215320054 		0.26488586117470236  0.9231428571428572 		Uiso   ? 		C 		0.554311
C 1.0  		0.9436677141491898 		0.26488586117470236  0.42314285714285715 		Uiso   ? 		C 		0.554311
C 1.0  		0.9436677141491898 		0.26488586117470236  0.9231428571428572 		Uiso   ? 		C 		0.554311
C 1.0  		0.043548068670608654 		0.4650176376304996  0.42314285714285715 		Uiso   ? 		C 		0.554559
C 1.0  		0.043548068670608654 		0.4650176376304996  0.9231428571428572 		Uiso   ? 		C 		0.554559
C 1.0  		0.5435935006665978 		0.4650176376304996  0.42314285714285715 		Uiso   ? 		C 		0.554559
C 1.0  		0.5435935006665978 		0.4650176376304996  0.9231428571428572 		Uiso   ? 		C 		0.554559
C 1.0  		0.14351928718400597 		0.6649600746572942  0.42314285714285715 		Uiso   ? 		C 		0.553978
C 1.0  		0.14351928718400597 		0.6649600746572942  0.9231428571428572 		Uiso   ? 		C 		0.553978
C 1.0  		0.6435647191799952 		0.6649600746572942  0.42314285714285715 		Uiso   ? 		C 		0.553978
C 1.0  		0.6435647191799952 		0.6649600746572942  0.9231428571428572 		Uiso   ? 		C 		0.553978
C 1.0  		0.24349050569740324 		0.8649025116840888  0.42314285714285715 		Uiso   ? 		C 		0.554733
C 1.0  		0.24349050569740324 		0.8649025116840888  0.9231428571428572 		Uiso   ? 		C 		0.554733
C 1.0  		0.7435359376933925 		0.8649025116840888  0.42314285714285715 		Uiso   ? 		C 		0.554733
C 1.0  		0.7435359376933925 		0.8649025116840888  0.9231428571428572 		Uiso   ? 		C 		0.554733
C 1.0  		0.4606628307634387 		0.18100849412652997  0.42314285714285715 		Uiso   ? 		C 		0.468764
C 1.0  		0.4606628307634387 		0.18100849412652997  0.9231428571428572 		Uiso   ? 		C 		0.468764
C 1.0  		0.9607082627594279 		0.18100849412652997  0.42314285714285715 		Uiso   ? 		C 		0.468764
C 1.0  		0.9607082627594279 		0.18100849412652997  0.9231428571428572 		Uiso   ? 		C 		0.468764
C 1.0  		0.06077795670984948 		0.3809509311533246  0.42314285714285715 		Uiso   ? 		C 		0.476766
C 1.0  		0.06077795670984948 		0.3809509311533246  0.9231428571428572 		Uiso   ? 		C 		0.476766
C 1.0  		0.5608233887058387 		0.3809509311533246  0.42314285714285715 		Uiso   ? 		C 		0.476766
C 1.0  		0.5608233887058387 		0.3809509311533246  0.9231428571428572 		Uiso   ? 		C 		0.476766
C 1.0  		0.16074917522324678 		0.5810827076091218  0.42314285714285715 		Uiso   ? 		C 		0.472947
C 1.0  		0.16074917522324678 		0.5810827076091218  0.9231428571428572 		Uiso   ? 		C 		0.472947
C 1.0  		0.6607946072192361 		0.5810827076091218  0.42314285714285715 		Uiso   ? 		C 		0.472947
C 1.0  		0.6607946072192361 		0.5810827076091218  0.9231428571428572 		Uiso   ? 		C 		0.472947
C 1.0  		0.2607203937366441 		0.7810251446359165  0.42314285714285715 		Uiso   ? 		C 		0.472449
C 1.0  		0.2607203937366441 		0.7810251446359165  0.9231428571428572 		Uiso   ? 		C 		0.472449
C 1.0  		0.7607658257326333 		0.7810251446359165  0.42314285714285715 		Uiso   ? 		C 		0.472449
C 1.0  		0.7607658257326333 		0.7810251446359165  0.9231428571428572 		Uiso   ? 		C 		0.472449
C 1.0  		0.36069161225004137 		0.9809675816627111  0.42314285714285715 		Uiso   ? 		C 		0.468847
C 1.0  		0.36069161225004137 		0.9809675816627111  0.9231428571428572 		Uiso   ? 		C 		0.468847
C 1.0  		0.8607370442460306 		0.9809675816627111  0.42314285714285715 		Uiso   ? 		C 		0.468847
C 1.0  		0.8607370442460306 		0.9809675816627111  0.9231428571428572 		Uiso   ? 		C 		0.468847
C 1.0  		0.38738847173941454 		0.04847089382467749  0.42314285714285715 		Uiso   ? 		C 		0.521233
C 1.0  		0.38738847173941454 		0.04847089382467749  0.9231428571428572 		Uiso   ? 		C 		0.521233
C 1.0  		0.8874339037354039 		0.04847089382467749  0.42314285714285715 		Uiso   ? 		C 		0.521233
C 1.0  		0.8874339037354039 		0.04847089382467749  0.9231428571428572 		Uiso   ? 		C 		0.521233
C 1.0  		0.48735969025281184 		0.2484133308514721  0.42314285714285715 		Uiso   ? 		C 		0.520978
C 1.0  		0.48735969025281184 		0.2484133308514721  0.9231428571428572 		Uiso   ? 		C 		0.520978
C 1.0  		0.9874051222488011 		0.2484133308514721  0.42314285714285715 		Uiso   ? 		C 		0.520978
C 1.0  		0.9874051222488011 		0.2484133308514721  0.9231428571428572 		Uiso   ? 		C 		0.520978
C 1.0  		0.08728547677021997 		0.4483557678782667  0.42314285714285715 		Uiso   ? 		C 		0.523057
C 1.0  		0.08728547677021997 		0.4483557678782667  0.9231428571428572 		Uiso   ? 		C 		0.523057
C 1.0  		0.5873309087662092 		0.4483557678782667  0.42314285714285715 		Uiso   ? 		C 		0.523057
C 1.0  		0.5873309087662092 		0.4483557678782667  0.9231428571428572 		Uiso   ? 		C 		0.523057
C 1.0  		0.18744603471261992 		0.648487544334064  0.42314285714285715 		Uiso   ? 		C 		0.522620
C 1.0  		0.18744603471261992 		0.648487544334064  0.9231428571428572 		Uiso   ? 		C 		0.522620
C 1.0  		0.6874914667086092 		0.648487544334064  0.42314285714285715 		Uiso   ? 		C 		0.522620
C 1.0  		0.6874914667086092 		0.648487544334064  0.9231428571428572 		Uiso   ? 		C 		0.522620
C 1.0  		0.28741725322601724 		0.8484299813608586  0.42314285714285715 		Uiso   ? 		C 		0.523994
C 1.0  		0.28741725322601724 		0.8484299813608586  0.9231428571428572 		Uiso   ? 		C 		0.523994
C 1.0  		0.7874626852220065 		0.8484299813608586  0.42314285714285715 		Uiso   ? 		C 		0.523994
C 1.0  		0.7874626852220065 		0.8484299813608586  0.9231428571428572 		Uiso   ? 		C 		0.523994
C 1.0  		0.4665323530625208 		0.13518835230788953  0.42314285714285715 		Uiso   ? 		C 		0.515909
C 1.0  		0.4665323530625208 		0.13518835230788953  0.9231428571428572 		Uiso   ? 		C 		0.515909
C 1.0  		0.9665777850585101 		0.13518835230788953  0.42314285714285715 		Uiso   ? 		C 		0.515909
C 1.0  		0.9665777850585101 		0.13518835230788953  0.9231428571428572 		Uiso   ? 		C 		0.515909
C 1.0  		0.06645813957992888 		0.33513078933468415  0.42314285714285715 		Uiso   ? 		C 		0.522225
C 1.0  		0.06645813957992888 		0.33513078933468415  0.9231428571428572 		Uiso   ? 		C 		0.522225
C 1.0  		0.5665035715759181 		0.33513078933468415  0.42314285714285715 		Uiso   ? 		C 		0.522225
C 1.0  		0.5665035715759181 		0.33513078933468415  0.9231428571428572 		Uiso   ? 		C 		0.522225
C 1.0  		0.16642935809332618 		0.5350732263614788  0.42314285714285715 		Uiso   ? 		C 		0.521832
C 1.0  		0.16642935809332618 		0.5350732263614788  0.9231428571428572 		Uiso   ? 		C 		0.521832
C 1.0  		0.6664747900893154 		0.5350732263614788  0.42314285714285715 		Uiso   ? 		C 		0.521832
C 1.0  		0.6664747900893154 		0.5350732263614788  0.9231428571428572 		Uiso   ? 		C 		0.521832
C 1.0  		0.26640057660672345 		0.7352050028172761  0.42314285714285715 		Uiso   ? 		C 		0.520737
C 1.0  		0.26640057660672345 		0.7352050028172761  0.9231428571428572 		Uiso   ? 		C 		0.520737
C 1.0  		0.7664460086027127 		0.7352050028172761  0.42314285714285715 		Uiso   ? 		C 		0.520737
C 1.0  		0.7664460086027127 		0.7352050028172761  0.9231428571428572 		Uiso   ? 		C 		0.520737
C 1.0  		0.3663717951201208 		0.9351474398440707  0.42314285714285715 		Uiso   ? 		C 		0.521017
C 1.0  		0.3663717951201208 		0.9351474398440707  0.9231428571428572 		Uiso   ? 		C 		0.521017
C 1.0  		0.8664172271161098 		0.9351474398440707  0.42314285714285715 		Uiso   ? 		C 		0.521017
C 1.0  		0.8664172271161098 		0.9351474398440707  0.9231428571428572 		Uiso   ? 		C 		0.521017
C 1.0  		0.25996303602063353 		0.06778351558294742  0.42314285714285715 		Uiso   ? 		C 		0.497265
C 1.0  		0.25996303602063353 		0.06778351558294742  0.9231428571428572 		Uiso   ? 		C 		0.497265
C 1.0  		0.7600084680166228 		0.06778351558294742  0.42314285714285715 		Uiso   ? 		C 		0.497265
C 1.0  		0.7600084680166228 		0.06778351558294742  0.9231428571428572 		Uiso   ? 		C 		0.497265
C 1.0  		0.35993425453403083 		0.267725952609742  0.42314285714285715 		Uiso   ? 		C 		0.497341
C 1.0  		0.35993425453403083 		0.267725952609742  0.9231428571428572 		Uiso   ? 		C 		0.497341
C 1.0  		0.85997968653002 		0.267725952609742  0.42314285714285715 		Uiso   ? 		C 		0.497341
C 1.0  		0.85997968653002 		0.267725952609742  0.9231428571428572 		Uiso   ? 		C 		0.497341
C 1.0  		0.4600948124764308 		0.46785772906553935  0.42314285714285715 		Uiso   ? 		C 		0.496286
C 1.0  		0.4600948124764308 		0.46785772906553935  0.9231428571428572 		Uiso   ? 		C 		0.496286
C 1.0  		0.96014024447242 		0.46785772906553935  0.42314285714285715 		Uiso   ? 		C 		0.496286
C 1.0  		0.96014024447242 		0.46785772906553935  0.9231428571428572 		Uiso   ? 		C 		0.496286
C 1.0  		0.060020598993838874 		0.667800166092334  0.42314285714285715 		Uiso   ? 		C 		0.497190
C 1.0  		0.060020598993838874 		0.667800166092334  0.9231428571428572 		Uiso   ? 		C 		0.497190
C 1.0  		0.5600660309898281 		0.667800166092334  0.42314285714285715 		Uiso   ? 		C 		0.497190
C 1.0  		0.5600660309898281 		0.667800166092334  0.9231428571428572 		Uiso   ? 		C 		0.497190
C 1.0  		0.15999181750723618 		0.8677426031191285  0.42314285714285715 		Uiso   ? 		C 		0.498694
C 1.0  		0.15999181750723618 		0.8677426031191285  0.9231428571428572 		Uiso   ? 		C 		0.498694
C 1.0  		0.6600372495032255 		0.8677426031191285  0.42314285714285715 		Uiso   ? 		C 		0.498694
C 1.0  		0.6600372495032255 		0.8677426031191285  0.9231428571428572 		Uiso   ? 		C 		0.498694
C 1.0  		0.46634301363351816 		0.09353367792730734  0.42314285714285715 		Uiso   ? 		C 		0.483118
C 1.0  		0.46634301363351816 		0.09353367792730734  0.9231428571428572 		Uiso   ? 		C 		0.483118
C 1.0  		0.9663884456295073 		0.09353367792730734  0.42314285714285715 		Uiso   ? 		C 		0.483118
C 1.0  		0.9663884456295073 		0.09353367792730734  0.9231428571428572 		Uiso   ? 		C 		0.483118
C 1.0  		0.06626880015092623 		0.293476114954102  0.42314285714285715 		Uiso   ? 		C 		0.492848
C 1.0  		0.06626880015092623 		0.293476114954102  0.9231428571428572 		Uiso   ? 		C 		0.492848
C 1.0  		0.5663142321469155 		0.293476114954102  0.42314285714285715 		Uiso   ? 		C 		0.492848
C 1.0  		0.5663142321469155 		0.293476114954102  0.9231428571428572 		Uiso   ? 		C 		0.492848
C 1.0  		0.16624001866432353 		0.49341855198089657  0.42314285714285715 		Uiso   ? 		C 		0.490135
C 1.0  		0.16624001866432353 		0.49341855198089657  0.9231428571428572 		Uiso   ? 		C 		0.490135
C 1.0  		0.6662854506603128 		0.49341855198089657  0.42314285714285715 		Uiso   ? 		C 		0.490135
C 1.0  		0.6662854506603128 		0.49341855198089657  0.9231428571428572 		Uiso   ? 		C 		0.490135
C 1.0  		0.26640057660672345 		0.6933609890076912  0.42314285714285715 		Uiso   ? 		C 		0.487146
C 1.0  		0.26640057660672345 		0.6933609890076912  0.9231428571428572 		Uiso   ? 		C 		0.487146
C 1.0  		0.7664460086027127 		0.6933609890076912  0.42314285714285715 		Uiso   ? 		C 		0.487146
C 1.0  		0.7664460086027127 		0.6933609890076912  0.9231428571428572 		Uiso   ? 		C 		0.487146
C 1.0  		0.3663717951201208 		0.8934927654634885  0.42314285714285715 		Uiso   ? 		C 		0.489073
C 1.0  		0.3663717951201208 		0.8934927654634885  0.9231428571428572 		Uiso   ? 		C 		0.489073
C 1.0  		0.8664172271161099 		0.8934927654634885  0.42314285714285715 		Uiso   ? 		C 		0.489073
C 1.0  		0.8664172271161099 		0.8934927654634885  0.9231428571428572 		Uiso   ? 		C 		0.489073
C 1.0  		0.3500886042258932 		0.02272073148031757  0.42314285714285715 		Uiso   ? 		C 		0.497058
C 1.0  		0.3500886042258932 		0.02272073148031757  0.9231428571428572 		Uiso   ? 		C 		0.497058
C 1.0  		0.8501340362218824 		0.02272073148031757  0.42314285714285715 		Uiso   ? 		C 		0.497058
C 1.0  		0.8501340362218824 		0.02272073148031757  0.9231428571428572 		Uiso   ? 		C 		0.497058
C 1.0  		0.4500598227392905 		0.22266316850711218  0.42314285714285715 		Uiso   ? 		C 		0.496102
C 1.0  		0.4500598227392905 		0.22266316850711218  0.9231428571428572 		Uiso   ? 		C 		0.496102
C 1.0  		0.9501052547352797 		0.22266316850711218  0.42314285714285715 		Uiso   ? 		C 		0.496102
C 1.0  		0.9501052547352797 		0.22266316850711218  0.9231428571428572 		Uiso   ? 		C 		0.496102
C 1.0  		0.05017494868570128 		0.42260560553390686  0.42314285714285715 		Uiso   ? 		C 		0.496887
C 1.0  		0.05017494868570128 		0.42260560553390686  0.9231428571428572 		Uiso   ? 		C 		0.496887
C 1.0  		0.5502203806816905 		0.42260560553390686  0.42314285714285715 		Uiso   ? 		C 		0.496887
C 1.0  		0.5502203806816905 		0.42260560553390686  0.9231428571428572 		Uiso   ? 		C 		0.496887
C 1.0  		0.1501461671990986 		0.6227373819897041  0.42314285714285715 		Uiso   ? 		C 		0.496589
C 1.0  		0.1501461671990986 		0.6227373819897041  0.9231428571428572 		Uiso   ? 		C 		0.496589
C 1.0  		0.6501915991950878 		0.6227373819897041  0.42314285714285715 		Uiso   ? 		C 		0.496589
C 1.0  		0.6501915991950878 		0.6227373819897041  0.9231428571428572 		Uiso   ? 		C 		0.496589
C 1.0  		0.25011738571249587 		0.8226798190164987  0.42314285714285715 		Uiso   ? 		C 		0.498186
C 1.0  		0.25011738571249587 		0.8226798190164987  0.9231428571428572 		Uiso   ? 		C 		0.498186
C 1.0  		0.7501628177084851 		0.8226798190164987  0.42314285714285715 		Uiso   ? 		C 		0.498186
C 1.0  		0.7501628177084851 		0.8226798190164987  0.9231428571428572 		Uiso   ? 		C 		0.498186
C 1.0  		0.2203910953590804 		0.05131098525971718  0.42314285714285715 		Uiso   ? 		C 		0.473550
C 1.0  		0.2203910953590804 		0.05131098525971718  0.9231428571428572 		Uiso   ? 		C 		0.473550
C 1.0  		0.7204365273550697 		0.05131098525971718  0.42314285714285715 		Uiso   ? 		C 		0.473550
C 1.0  		0.7204365273550697 		0.05131098525971718  0.9231428571428572 		Uiso   ? 		C 		0.473550
C 1.0  		0.3203623138724777 		0.2512534222865118  0.42314285714285715 		Uiso   ? 		C 		0.471831
C 1.0  		0.3203623138724777 		0.2512534222865118  0.9231428571428572 		Uiso   ? 		C 		0.471831
C 1.0  		0.820407745868467 		0.2512534222865118  0.42314285714285715 		Uiso   ? 		C 		0.471831
C 1.0  		0.820407745868467 		0.2512534222865118  0.9231428571428572 		Uiso   ? 		C 		0.471831
C 1.0  		0.4203335323858751 		0.4511958593133064  0.42314285714285715 		Uiso   ? 		C 		0.476059
C 1.0  		0.4203335323858751 		0.4511958593133064  0.9231428571428572 		Uiso   ? 		C 		0.476059
C 1.0  		0.9203789643818642 		0.4511958593133064  0.42314285714285715 		Uiso   ? 		C 		0.476059
C 1.0  		0.9203789643818642 		0.4511958593133064  0.9231428571428572 		Uiso   ? 		C 		0.476059
C 1.0  		0.020259318903283127 		0.6513276357691037  0.42314285714285715 		Uiso   ? 		C 		0.476739
C 1.0  		0.020259318903283127 		0.6513276357691037  0.9231428571428572 		Uiso   ? 		C 		0.476739
C 1.0  		0.5203047508992724 		0.6513276357691037  0.42314285714285715 		Uiso   ? 		C 		0.476739
C 1.0  		0.5203047508992724 		0.6513276357691037  0.9231428571428572 		Uiso   ? 		C 		0.476739
C 1.0  		0.12041987684568307 		0.8512700727958984  0.42314285714285715 		Uiso   ? 		C 		0.473099
C 1.0  		0.12041987684568307 		0.8512700727958984  0.9231428571428572 		Uiso   ? 		C 		0.473099
C 1.0  		0.6204653088416724 		0.8512700727958984  0.42314285714285715 		Uiso   ? 		C 		0.473099
C 1.0  		0.6204653088416724 		0.8512700727958984  0.9231428571428572 		Uiso   ? 		C 		0.473099
C 1.0  		0.1374604254559213 		0.04847089382467749  0.42314285714285715 		Uiso   ? 		C 		0.523518
C 1.0  		0.1374604254559213 		0.04847089382467749  0.9231428571428572 		Uiso   ? 		C 		0.523518
C 1.0  		0.6375058574519105 		0.04847089382467749  0.42314285714285715 		Uiso   ? 		C 		0.523518
C 1.0  		0.6375058574519105 		0.04847089382467749  0.9231428571428572 		Uiso   ? 		C 		0.523518
C 1.0  		0.2374316439693186 		0.2484133308514721  0.42314285714285715 		Uiso   ? 		C 		0.516569
C 1.0  		0.2374316439693186 		0.2484133308514721  0.9231428571428572 		Uiso   ? 		C 		0.516569
C 1.0  		0.7374770759653079 		0.2484133308514721  0.42314285714285715 		Uiso   ? 		C 		0.516569
C 1.0  		0.7374770759653079 		0.2484133308514721  0.9231428571428572 		Uiso   ? 		C 		0.516569
C 1.0  		0.33740286248271595 		0.44854510730726943  0.42314285714285715 		Uiso   ? 		C 		0.519501
C 1.0  		0.33740286248271595 		0.44854510730726943  0.9231428571428572 		Uiso   ? 		C 		0.519501
C 1.0  		0.8374482944787052 		0.44854510730726943  0.42314285714285715 		Uiso   ? 		C 		0.519501
C 1.0  		0.8374482944787052 		0.44854510730726943  0.9231428571428572 		Uiso   ? 		C 		0.519501
C 1.0  		0.4373740809961132 		0.648487544334064  0.42314285714285715 		Uiso   ? 		C 		0.519669
C 1.0  		0.4373740809961132 		0.648487544334064  0.9231428571428572 		Uiso   ? 		C 		0.519669
C 1.0  		0.9374195129921024 		0.648487544334064  0.42314285714285715 		Uiso   ? 		C 		0.519669
C 1.0  		0.9374195129921024 		0.648487544334064  0.9231428571428572 		Uiso   ? 		C 		0.519669
C 1.0  		0.037489206942523945 		0.8484299813608586  0.42314285714285715 		Uiso   ? 		C 		0.523264
C 1.0  		0.037489206942523945 		0.8484299813608586  0.9231428571428572 		Uiso   ? 		C 		0.523264
C 1.0  		0.5375346389385132 		0.8484299813608586  0.42314285714285715 		Uiso   ? 		C 		0.523264
C 1.0  		0.5375346389385132 		0.8484299813608586  0.9231428571428572 		Uiso   ? 		C 		0.523264
C 1.0  		0.04771353610866689 		0.08785349505722795  0.42314285714285715 		Uiso   ? 		C 		0.551653
C 1.0  		0.04771353610866689 		0.08785349505722795  0.9231428571428572 		Uiso   ? 		C 		0.551653
C 1.0  		0.5477589681046561 		0.08785349505722795  0.42314285714285715 		Uiso   ? 		C 		0.551653
C 1.0  		0.5477589681046561 		0.08785349505722795  0.9231428571428572 		Uiso   ? 		C 		0.551653
C 1.0  		0.008141595447113788 		0.11303563911457991  0.42314285714285715 		Uiso   ? 		C 		0.523121
C 1.0  		0.008141595447113788 		0.11303563911457991  0.9231428571428572 		Uiso   ? 		C 		0.523121
C 1.0  		0.5081870274431031 		0.11303563911457991  0.42314285714285715 		Uiso   ? 		C 		0.523121
C 1.0  		0.5081870274431031 		0.11303563911457991  0.9231428571428572 		Uiso   ? 		C 		0.523121
C 1.0  		0.14768475462206418 		0.28779593208402254  0.42314285714285715 		Uiso   ? 		C 		0.557479
C 1.0  		0.14768475462206418 		0.28779593208402254  0.9231428571428572 		Uiso   ? 		C 		0.557479
C 1.0  		0.6477301866180534 		0.28779593208402254  0.42314285714285715 		Uiso   ? 		C 		0.557479
C 1.0  		0.6477301866180534 		0.28779593208402254  0.9231428571428572 		Uiso   ? 		C 		0.557479
C 1.0  		0.10830215338951373 		0.3129780761413745  0.42314285714285715 		Uiso   ? 		C 		0.523239
C 1.0  		0.10830215338951373 		0.3129780761413745  0.9231428571428572 		Uiso   ? 		C 		0.523239
C 1.0  		0.6083475853855029 		0.3129780761413745  0.42314285714285715 		Uiso   ? 		C 		0.523239
C 1.0  		0.6083475853855029 		0.3129780761413745  0.9231428571428572 		Uiso   ? 		C 		0.523239
C 1.0  		0.24784531256446413 		0.4879277085398198  0.42314285714285715 		Uiso   ? 		C 		0.553822
C 1.0  		0.24784531256446413 		0.4879277085398198  0.9231428571428572 		Uiso   ? 		C 		0.553822
C 1.0  		0.7478907445604533 		0.4879277085398198  0.42314285714285715 		Uiso   ? 		C 		0.553822
C 1.0  		0.7478907445604533 		0.4879277085398198  0.9231428571428572 		Uiso   ? 		C 		0.553822
C 1.0  		0.20827337190291106 		0.5129205131681692  0.42314285714285715 		Uiso   ? 		C 		0.517254
C 1.0  		0.20827337190291106 		0.5129205131681692  0.9231428571428572 		Uiso   ? 		C 		0.517254
C 1.0  		0.7083188038989003 		0.5129205131681692  0.42314285714285715 		Uiso   ? 		C 		0.517254
C 1.0  		0.7083188038989003 		0.5129205131681692  0.9231428571428572 		Uiso   ? 		C 		0.517254
C 1.0  		0.3478165310778614 		0.6878701455666144  0.42314285714285715 		Uiso   ? 		C 		0.552918
C 1.0  		0.3478165310778614 		0.6878701455666144  0.9231428571428572 		Uiso   ? 		C 		0.552918
C 1.0  		0.8478619630738506 		0.6878701455666144  0.42314285714285715 		Uiso   ? 		C 		0.552918
C 1.0  		0.8478619630738506 		0.6878701455666144  0.9231428571428572 		Uiso   ? 		C 		0.552918
C 1.0  		0.3082445904163083 		0.7128629501949638  0.42314285714285715 		Uiso   ? 		C 		0.518617
C 1.0  		0.3082445904163083 		0.7128629501949638  0.9231428571428572 		Uiso   ? 		C 		0.518617
C 1.0  		0.8082900224122976 		0.7128629501949638  0.42314285714285715 		Uiso   ? 		C 		0.518617
C 1.0  		0.8082900224122976 		0.7128629501949638  0.9231428571428572 		Uiso   ? 		C 		0.518617
C 1.0  		0.4477877495912588 		0.8878125825934091  0.42314285714285715 		Uiso   ? 		C 		0.552930
C 1.0  		0.4477877495912588 		0.8878125825934091  0.9231428571428572 		Uiso   ? 		C 		0.552930
C 1.0  		0.947833181587248 		0.8878125825934091  0.42314285714285715 		Uiso   ? 		C 		0.552930
C 1.0  		0.947833181587248 		0.8878125825934091  0.9231428571428572 		Uiso   ? 		C 		0.552930
C 1.0  		0.40821580892970566 		0.9129947266507611  0.42314285714285715 		Uiso   ? 		C 		0.521709
C 1.0  		0.40821580892970566 		0.9129947266507611  0.9231428571428572 		Uiso   ? 		C 		0.521709
C 1.0  		0.9082612409256947 		0.9129947266507611  0.42314285714285715 		Uiso   ? 		C 		0.521709
C 1.0  		0.9082612409256947 		0.9129947266507611  0.9231428571428572 		Uiso   ? 		C 		0.521709
C 1.0  		0.09353367792730734 		0.06494342414790773  0.42314285714285715 		Uiso   ? 		C 		0.555071
C 1.0  		0.09353367792730734 		0.06494342414790773  0.9231428571428572 		Uiso   ? 		C 		0.555071
C 1.0  		0.5935791099232965 		0.06494342414790773  0.42314285714285715 		Uiso   ? 		C 		0.555071
C 1.0  		0.5935791099232965 		0.06494342414790773  0.9231428571428572 		Uiso   ? 		C 		0.555071
C 1.0  		0.19369423586970724 		0.265075200603705  0.42314285714285715 		Uiso   ? 		C 		0.551168
C 1.0  		0.19369423586970724 		0.265075200603705  0.9231428571428572 		Uiso   ? 		C 		0.551168
C 1.0  		0.6937396678656965 		0.265075200603705  0.42314285714285715 		Uiso   ? 		C 		0.551168
C 1.0  		0.6937396678656965 		0.265075200603705  0.9231428571428572 		Uiso   ? 		C 		0.551168
C 1.0  		0.29366545438310454 		0.4650176376304996  0.42314285714285715 		Uiso   ? 		C 		0.552280
C 1.0  		0.29366545438310454 		0.4650176376304996  0.9231428571428572 		Uiso   ? 		C 		0.552280
C 1.0  		0.7937108863790938 		0.4650176376304996  0.42314285714285715 		Uiso   ? 		C 		0.552280
C 1.0  		0.7937108863790938 		0.4650176376304996  0.9231428571428572 		Uiso   ? 		C 		0.552280
C 1.0  		0.3936366728965019 		0.6649600746572942  0.42314285714285715 		Uiso   ? 		C 		0.555028
C 1.0  		0.3936366728965019 		0.6649600746572942  0.9231428571428572 		Uiso   ? 		C 		0.555028
C 1.0  		0.8936821048924911 		0.6649600746572942  0.42314285714285715 		Uiso   ? 		C 		0.555028
C 1.0  		0.8936821048924911 		0.6649600746572942  0.9231428571428572 		Uiso   ? 		C 		0.555028
C 1.0  		0.4936078914098992 		0.8650918511130915  0.42314285714285715 		Uiso   ? 		C 		0.553662
C 1.0  		0.4936078914098992 		0.8650918511130915  0.9231428571428572 		Uiso   ? 		C 		0.553662
C 1.0  		0.9936533234058884 		0.8650918511130915  0.42314285714285715 		Uiso   ? 		C 		0.553662
C 1.0  		0.9936533234058884 		0.8650918511130915  0.9231428571428572 		Uiso   ? 		C 		0.553662
C 1.0  		0.10016055794239996 		0.02272073148031757  0.42314285714285715 		Uiso   ? 		C 		0.497484
C 1.0  		0.10016055794239996 		0.02272073148031757  0.9231428571428572 		Uiso   ? 		C 		0.497484
C 1.0  		0.6002059899383891 		0.02272073148031757  0.42314285714285715 		Uiso   ? 		C 		0.497484
C 1.0  		0.6002059899383891 		0.02272073148031757  0.9231428571428572 		Uiso   ? 		C 		0.497484
C 1.0  		0.20013177645579724 		0.22285250793611486  0.42314285714285715 		Uiso   ? 		C 		0.497061
C 1.0  		0.20013177645579724 		0.22285250793611486  0.9231428571428572 		Uiso   ? 		C 		0.497061
C 1.0  		0.7001772084517864 		0.22285250793611486  0.42314285714285715 		Uiso   ? 		C 		0.497061
C 1.0  		0.7001772084517864 		0.22285250793611486  0.9231428571428572 		Uiso   ? 		C 		0.497061
C 1.0  		0.30029233439819725 		0.4227949449629095  0.42314285714285715 		Uiso   ? 		C 		0.492419
C 1.0  		0.30029233439819725 		0.4227949449629095  0.9231428571428572 		Uiso   ? 		C 		0.492419
C 1.0  		0.8003377663941865 		0.4227949449629095  0.42314285714285715 		Uiso   ? 		C 		0.492419
C 1.0  		0.8003377663941865 		0.4227949449629095  0.9231428571428572 		Uiso   ? 		C 		0.492419
C 1.0  		0.40026355291159443 		0.6227373819897041  0.42314285714285715 		Uiso   ? 		C 		0.501044
C 1.0  		0.40026355291159443 		0.6227373819897041  0.9231428571428572 		Uiso   ? 		C 		0.501044
C 1.0  		0.9003089849075837 		0.6227373819897041  0.42314285714285715 		Uiso   ? 		C 		0.501044
C 1.0  		0.9003089849075837 		0.6227373819897041  0.9231428571428572 		Uiso   ? 		C 		0.501044
C 1.0  		0.00018933942900259607 		0.8226798190164987  0.42314285714285715 		Uiso   ? 		C 		0.498248
C 1.0  		0.00018933942900259607 		0.8226798190164987  0.9231428571428572 		Uiso   ? 		C 		0.498248
C 1.0  		0.5002347714249918 		0.8226798190164987  0.42314285714285715 		Uiso   ? 		C 		0.498248
C 1.0  		0.5002347714249918 		0.8226798190164987  0.9231428571428572 		Uiso   ? 		C 		0.498248
C 1.0  		0.21641496735002486 		0.09353367792730734  0.42314285714285715 		Uiso   ? 		C 		0.488210
C 1.0  		0.21641496735002486 		0.09353367792730734  0.9231428571428572 		Uiso   ? 		C 		0.488210
C 1.0  		0.716460399346014 		0.09353367792730734  0.42314285714285715 		Uiso   ? 		C 		0.488210
C 1.0  		0.716460399346014 		0.09353367792730734  0.9231428571428572 		Uiso   ? 		C 		0.488210
C 1.0  		0.31638618586342215 		0.2936654543831046  0.42314285714285715 		Uiso   ? 		C 		0.483727
C 1.0  		0.31638618586342215 		0.2936654543831046  0.9231428571428572 		Uiso   ? 		C 		0.483727
C 1.0  		0.8164316178594114 		0.2936654543831046  0.42314285714285715 		Uiso   ? 		C 		0.483727
C 1.0  		0.8164316178594114 		0.2936654543831046  0.9231428571428572 		Uiso   ? 		C 		0.483727
C 1.0  		0.4163574043768194 		0.49360789140989925  0.42314285714285715 		Uiso   ? 		C 		0.489356
C 1.0  		0.4163574043768194 		0.49360789140989925  0.9231428571428572 		Uiso   ? 		C 		0.489356
C 1.0  		0.9164028363728086 		0.49360789140989925  0.42314285714285715 		Uiso   ? 		C 		0.489356
C 1.0  		0.9164028363728086 		0.49360789140989925  0.9231428571428572 		Uiso   ? 		C 		0.489356
C 1.0  		0.01628319089422755 		0.6935503284366938  0.42314285714285715 		Uiso   ? 		C 		0.490886
C 1.0  		0.01628319089422755 		0.6935503284366938  0.9231428571428572 		Uiso   ? 		C 		0.490886
C 1.0  		0.5163286228902167 		0.6935503284366938  0.42314285714285715 		Uiso   ? 		C 		0.490886
C 1.0  		0.5163286228902167 		0.6935503284366938  0.9231428571428572 		Uiso   ? 		C 		0.490886
C 1.0  		0.11644374883662749 		0.8934927654634885  0.42314285714285715 		Uiso   ? 		C 		0.488776
C 1.0  		0.11644374883662749 		0.8934927654634885  0.9231428571428572 		Uiso   ? 		C 		0.488776
C 1.0  		0.6164891808326167 		0.8934927654634885  0.42314285714285715 		Uiso   ? 		C 		0.488776
C 1.0  		0.6164891808326167 		0.8934927654634885  0.9231428571428572 		Uiso   ? 		C 		0.488776
C 1.0  		0.21073478447994545 		0.18100849412652997  0.42314285714285715 		Uiso   ? 		C 		0.470695
C 1.0  		0.21073478447994545 		0.18100849412652997  0.9231428571428572 		Uiso   ? 		C 		0.470695
C 1.0  		0.7107802164759347 		0.18100849412652997  0.42314285714285715 		Uiso   ? 		C 		0.470695
C 1.0  		0.7107802164759347 		0.18100849412652997  0.9231428571428572 		Uiso   ? 		C 		0.470695
C 1.0  		0.3107060029933428 		0.38114027058232725  0.42314285714285715 		Uiso   ? 		C 		0.470882
C 1.0  		0.3107060029933428 		0.38114027058232725  0.9231428571428572 		Uiso   ? 		C 		0.470882
C 1.0  		0.810751434989332 		0.38114027058232725  0.42314285714285715 		Uiso   ? 		C 		0.470882
C 1.0  		0.810751434989332 		0.38114027058232725  0.9231428571428572 		Uiso   ? 		C 		0.470882
C 1.0  		0.41067722150674 		0.5810827076091218  0.42314285714285715 		Uiso   ? 		C 		0.477243
C 1.0  		0.41067722150674 		0.5810827076091218  0.9231428571428572 		Uiso   ? 		C 		0.477243
C 1.0  		0.9107226535027292 		0.5810827076091218  0.42314285714285715 		Uiso   ? 		C 		0.477243
C 1.0  		0.9107226535027292 		0.5810827076091218  0.9231428571428572 		Uiso   ? 		C 		0.477243
C 1.0  		0.010792347453150797 		0.7810251446359165  0.42314285714285715 		Uiso   ? 		C 		0.475026
C 1.0  		0.010792347453150797 		0.7810251446359165  0.9231428571428572 		Uiso   ? 		C 		0.475026
C 1.0  		0.51083777944914 		0.7810251446359165  0.42314285714285715 		Uiso   ? 		C 		0.475026
C 1.0  		0.51083777944914 		0.7810251446359165  0.9231428571428572 		Uiso   ? 		C 		0.475026
C 1.0  		0.1107635659665481 		0.9809675816627111  0.42314285714285715 		Uiso   ? 		C 		0.471906
C 1.0  		0.1107635659665481 		0.9809675816627111  0.9231428571428572 		Uiso   ? 		C 		0.471906
C 1.0  		0.6108089979625373 		0.9809675816627111  0.42314285714285715 		Uiso   ? 		C 		0.471906
C 1.0  		0.6108089979625373 		0.9809675816627111  0.9231428571428572 		Uiso   ? 		C 		0.471906
C 1.0  		0.21660430677902748 		0.13518835230788953  0.42314285714285715 		Uiso   ? 		C 		0.515169
C 1.0  		0.21660430677902748 		0.13518835230788953  0.9231428571428572 		Uiso   ? 		C 		0.515169
C 1.0  		0.7166497387750167 		0.13518835230788953  0.42314285714285715 		Uiso   ? 		C 		0.515169
C 1.0  		0.7166497387750167 		0.13518835230788953  0.9231428571428572 		Uiso   ? 		C 		0.515169
C 1.0  		0.31657552529242483 		0.3353201287636868  0.42314285714285715 		Uiso   ? 		C 		0.513493
C 1.0  		0.31657552529242483 		0.3353201287636868  0.9231428571428572 		Uiso   ? 		C 		0.513493
C 1.0  		0.816620957288414 		0.3353201287636868  0.42314285714285715 		Uiso   ? 		C 		0.513493
C 1.0  		0.816620957288414 		0.3353201287636868  0.9231428571428572 		Uiso   ? 		C 		0.513493
C 1.0  		0.41654674380582213 		0.5352625657904815  0.42314285714285715 		Uiso   ? 		C 		0.522189
C 1.0  		0.41654674380582213 		0.5352625657904815  0.9231428571428572 		Uiso   ? 		C 		0.522189
C 1.0  		0.9165921758018114 		0.5352625657904815  0.42314285714285715 		Uiso   ? 		C 		0.522189
C 1.0  		0.9165921758018114 		0.5352625657904815  0.9231428571428572 		Uiso   ? 		C 		0.522189
C 1.0  		0.01647253032323019 		0.7352050028172761  0.42314285714285715 		Uiso   ? 		C 		0.518978
C 1.0  		0.01647253032323019 		0.7352050028172761  0.9231428571428572 		Uiso   ? 		C 		0.518978
C 1.0  		0.5165179623192194 		0.7352050028172761  0.42314285714285715 		Uiso   ? 		C 		0.518978
C 1.0  		0.5165179623192194 		0.7352050028172761  0.9231428571428572 		Uiso   ? 		C 		0.518978
C 1.0  		0.11663308826563014 		0.9353367792730733  0.42314285714285715 		Uiso   ? 		C 		0.517017
C 1.0  		0.11663308826563014 		0.9353367792730733  0.9231428571428572 		Uiso   ? 		C 		0.517017
C 1.0  		0.6166785202616193 		0.9353367792730733  0.42314285714285715 		Uiso   ? 		C 		0.517017
C 1.0  		0.6166785202616193 		0.9353367792730733  0.9231428571428572 		Uiso   ? 		C 		0.517017
C 1.0  		0.29783092182116283 		0.08785349505722795  0.023142857142857142 		Uiso   ? 		C 		0.552460
C 1.0  		0.29783092182116283 		0.08785349505722795  0.5231428571428571 		Uiso   ? 		C 		0.552460
C 1.0  		0.797876353817152 		0.08785349505722795  0.023142857142857142 		Uiso   ? 		C 		0.552460
C 1.0  		0.797876353817152 		0.08785349505722795  0.5231428571428571 		Uiso   ? 		C 		0.552460
C 1.0  		0.39780214033456013 		0.28779593208402254  0.023142857142857142 		Uiso   ? 		C 		0.552286
C 1.0  		0.39780214033456013 		0.28779593208402254  0.5231428571428571 		Uiso   ? 		C 		0.552286
C 1.0  		0.8978475723305493 		0.28779593208402254  0.023142857142857142 		Uiso   ? 		C 		0.552286
C 1.0  		0.8978475723305493 		0.28779593208402254  0.5231428571428571 		Uiso   ? 		C 		0.552286
C 1.0  		0.49777335884795737 		0.4879277085398198  0.023142857142857142 		Uiso   ? 		C 		0.553419
C 1.0  		0.49777335884795737 		0.4879277085398198  0.5231428571428571 		Uiso   ? 		C 		0.553419
C 1.0  		0.9978187908439465 		0.4879277085398198  0.023142857142857142 		Uiso   ? 		C 		0.553419
C 1.0  		0.9978187908439465 		0.4879277085398198  0.5231428571428571 		Uiso   ? 		C 		0.553419
C 1.0  		0.09788848479436817 		0.6878701455666144  0.023142857142857142 		Uiso   ? 		C 		0.552598
C 1.0  		0.09788848479436817 		0.6878701455666144  0.5231428571428571 		Uiso   ? 		C 		0.552598
C 1.0  		0.5979339167903573 		0.6878701455666144  0.023142857142857142 		Uiso   ? 		C 		0.552598
C 1.0  		0.5979339167903573 		0.6878701455666144  0.5231428571428571 		Uiso   ? 		C 		0.552598
C 1.0  		0.19785970330776545 		0.8878125825934091  0.023142857142857142 		Uiso   ? 		C 		0.556956
C 1.0  		0.19785970330776545 		0.8878125825934091  0.5231428571428571 		Uiso   ? 		C 		0.556956
C 1.0  		0.6979051353037548 		0.8878125825934091  0.023142857142857142 		Uiso   ? 		C 		0.556956
C 1.0  		0.6979051353037548 		0.8878125825934091  0.5231428571428571 		Uiso   ? 		C 		0.556956
C 1.0  		0.4703191416425737 		0.05112164583071454  0.023142857142857142 		Uiso   ? 		C 		0.474128
C 1.0  		0.4703191416425737 		0.05112164583071454  0.5231428571428571 		Uiso   ? 		C 		0.474128
C 1.0  		0.9703645736385629 		0.05112164583071454  0.023142857142857142 		Uiso   ? 		C 		0.474128
C 1.0  		0.9703645736385629 		0.05112164583071454  0.5231428571428571 		Uiso   ? 		C 		0.474128
C 1.0  		0.0702449281599818 		0.2512534222865118  0.023142857142857142 		Uiso   ? 		C 		0.475536
C 1.0  		0.0702449281599818 		0.2512534222865118  0.5231428571428571 		Uiso   ? 		C 		0.475536
C 1.0  		0.570290360155971 		0.2512534222865118  0.023142857142857142 		Uiso   ? 		C 		0.475536
C 1.0  		0.570290360155971 		0.2512534222865118  0.5231428571428571 		Uiso   ? 		C 		0.475536
C 1.0  		0.17021614667337912 		0.4511958593133064  0.023142857142857142 		Uiso   ? 		C 		0.473540
C 1.0  		0.17021614667337912 		0.4511958593133064  0.5231428571428571 		Uiso   ? 		C 		0.473540
C 1.0  		0.6702615786693683 		0.4511958593133064  0.023142857142857142 		Uiso   ? 		C 		0.473540
C 1.0  		0.6702615786693683 		0.4511958593133064  0.5231428571428571 		Uiso   ? 		C 		0.473540
C 1.0  		0.270376704615779 		0.651138296340101  0.023142857142857142 		Uiso   ? 		C 		0.472915
C 1.0  		0.270376704615779 		0.651138296340101  0.5231428571428571 		Uiso   ? 		C 		0.472915
C 1.0  		0.7704221366117683 		0.651138296340101  0.023142857142857142 		Uiso   ? 		C 		0.472915
C 1.0  		0.7704221366117683 		0.651138296340101  0.5231428571428571 		Uiso   ? 		C 		0.472915
C 1.0  		0.37034792312917636 		0.8510807333668957  0.023142857142857142 		Uiso   ? 		C 		0.472886
C 1.0  		0.37034792312917636 		0.8510807333668957  0.5231428571428571 		Uiso   ? 		C 		0.472886
C 1.0  		0.8703933551251657 		0.8510807333668957  0.023142857142857142 		Uiso   ? 		C 		0.472886
C 1.0  		0.8703933551251657 		0.8510807333668957  0.5231428571428571 		Uiso   ? 		C 		0.472886
C 1.0  		0.4301791826940126 		0.028211574921394315  0.023142857142857142 		Uiso   ? 		C 		0.518844
C 1.0  		0.4301791826940126 		0.028211574921394315  0.5231428571428571 		Uiso   ? 		C 		0.518844
C 1.0  		0.930224614690002 		0.028211574921394315  0.023142857142857142 		Uiso   ? 		C 		0.518844
C 1.0  		0.930224614690002 		0.028211574921394315  0.5231428571428571 		Uiso   ? 		C 		0.518844
C 1.0  		0.03010496921142077 		0.22834335137719158  0.023142857142857142 		Uiso   ? 		C 		0.516572
C 1.0  		0.03010496921142077 		0.22834335137719158  0.5231428571428571 		Uiso   ? 		C 		0.516572
C 1.0  		0.53015040120741 		0.22834335137719158  0.023142857142857142 		Uiso   ? 		C 		0.516572
C 1.0  		0.53015040120741 		0.22834335137719158  0.5231428571428571 		Uiso   ? 		C 		0.516572
C 1.0  		0.1302655271538207 		0.42828578840398623  0.023142857142857142 		Uiso   ? 		C 		0.519267
C 1.0  		0.1302655271538207 		0.42828578840398623  0.5231428571428571 		Uiso   ? 		C 		0.519267
C 1.0  		0.63031095914981 		0.42828578840398623  0.023142857142857142 		Uiso   ? 		C 		0.519267
C 1.0  		0.63031095914981 		0.42828578840398623  0.5231428571428571 		Uiso   ? 		C 		0.519267
C 1.0  		0.23023674566721802 		0.6282282254307808  0.023142857142857142 		Uiso   ? 		C 		0.520182
C 1.0  		0.23023674566721802 		0.6282282254307808  0.5231428571428571 		Uiso   ? 		C 		0.520182
C 1.0  		0.7302821776632072 		0.6282282254307808  0.023142857142857142 		Uiso   ? 		C 		0.520182
C 1.0  		0.7302821776632072 		0.6282282254307808  0.5231428571428571 		Uiso   ? 		C 		0.520182
C 1.0  		0.3302079641806153 		0.8283600018865781  0.023142857142857142 		Uiso   ? 		C 		0.521261
C 1.0  		0.3302079641806153 		0.8283600018865781  0.5231428571428571 		Uiso   ? 		C 		0.521261
C 1.0  		0.8302533961766045 		0.8283600018865781  0.023142857142857142 		Uiso   ? 		C 		0.521261
C 1.0  		0.8302533961766045 		0.8283600018865781  0.5231428571428571 		Uiso   ? 		C 		0.521261
C 1.0  		0.010034989737140256 		0.06778351558294742  0.023142857142857142 		Uiso   ? 		C 		0.492208
C 1.0  		0.010034989737140256 		0.06778351558294742  0.5231428571428571 		Uiso   ? 		C 		0.492208
C 1.0  		0.5100804217331295 		0.06778351558294742  0.023142857142857142 		Uiso   ? 		C 		0.492208
C 1.0  		0.5100804217331295 		0.06778351558294742  0.5231428571428571 		Uiso   ? 		C 		0.492208
C 1.0  		0.11000620825053754 		0.267725952609742  0.023142857142857142 		Uiso   ? 		C 		0.497846
C 1.0  		0.11000620825053754 		0.267725952609742  0.5231428571428571 		Uiso   ? 		C 		0.497846
C 1.0  		0.6100516402465268 		0.267725952609742  0.023142857142857142 		Uiso   ? 		C 		0.497846
C 1.0  		0.6100516402465268 		0.267725952609742  0.5231428571428571 		Uiso   ? 		C 		0.497846
C 1.0  		0.20997742676393485 		0.4676683896365367  0.023142857142857142 		Uiso   ? 		C 		0.497626
C 1.0  		0.20997742676393485 		0.4676683896365367  0.5231428571428571 		Uiso   ? 		C 		0.497626
C 1.0  		0.7100228587599241 		0.4676683896365367  0.023142857142857142 		Uiso   ? 		C 		0.497626
C 1.0  		0.7100228587599241 		0.4676683896365367  0.5231428571428571 		Uiso   ? 		C 		0.497626
C 1.0  		0.3099486452773321 		0.667800166092334  0.023142857142857142 		Uiso   ? 		C 		0.495480
C 1.0  		0.3099486452773321 		0.667800166092334  0.5231428571428571 		Uiso   ? 		C 		0.495480
C 1.0  		0.8099940772733213 		0.667800166092334  0.023142857142857142 		Uiso   ? 		C 		0.495480
C 1.0  		0.8099940772733213 		0.667800166092334  0.5231428571428571 		Uiso   ? 		C 		0.495480
C 1.0  		0.4099198637907295 		0.8677426031191285  0.023142857142857142 		Uiso   ? 		C 		0.498452
C 1.0  		0.4099198637907295 		0.8677426031191285  0.5231428571428571 		Uiso   ? 		C 		0.498452
C 1.0  		0.9099652957867187 		0.8677426031191285  0.023142857142857142 		Uiso   ? 		C 		0.498452
C 1.0  		0.9099652957867187 		0.8677426031191285  0.5231428571428571 		Uiso   ? 		C 		0.498452
C 1.0  		0.18025113641051937 		0.02840091435039696  0.023142857142857142 		Uiso   ? 		C 		0.521047
C 1.0  		0.18025113641051937 		0.02840091435039696  0.5231428571428571 		Uiso   ? 		C 		0.521047
C 1.0  		0.6802965684065085 		0.02840091435039696  0.023142857142857142 		Uiso   ? 		C 		0.521047
C 1.0  		0.6802965684065085 		0.02840091435039696  0.5231428571428571 		Uiso   ? 		C 		0.521047
C 1.0  		0.2802223549239167 		0.22834335137719158  0.023142857142857142 		Uiso   ? 		C 		0.519576
C 1.0  		0.2802223549239167 		0.22834335137719158  0.5231428571428571 		Uiso   ? 		C 		0.519576
C 1.0  		0.780267786919906 		0.22834335137719158  0.023142857142857142 		Uiso   ? 		C 		0.519576
C 1.0  		0.780267786919906 		0.22834335137719158  0.5231428571428571 		Uiso   ? 		C 		0.519576
C 1.0  		0.380193573437314 		0.42828578840398623  0.023142857142857142 		Uiso   ? 		C 		0.518804
C 1.0  		0.380193573437314 		0.42828578840398623  0.5231428571428571 		Uiso   ? 		C 		0.518804
C 1.0  		0.8802390054333032 		0.42828578840398623  0.023142857142857142 		Uiso   ? 		C 		0.518804
C 1.0  		0.8802390054333032 		0.42828578840398623  0.5231428571428571 		Uiso   ? 		C 		0.518804
C 1.0  		0.48016479195071127 		0.6284175648597835  0.023142857142857142 		Uiso   ? 		C 		0.522811
C 1.0  		0.48016479195071127 		0.6284175648597835  0.5231428571428571 		Uiso   ? 		C 		0.522811
C 1.0  		0.9802102239467004 		0.6284175648597835  0.023142857142857142 		Uiso   ? 		C 		0.522811
C 1.0  		0.9802102239467004 		0.6284175648597835  0.5231428571428571 		Uiso   ? 		C 		0.522811
C 1.0  		0.08027991789712202 		0.8283600018865781  0.023142857142857142 		Uiso   ? 		C 		0.515743
C 1.0  		0.08027991789712202 		0.8283600018865781  0.5231428571428571 		Uiso   ? 		C 		0.515743
C 1.0  		0.5803253498931112 		0.8283600018865781  0.023142857142857142 		Uiso   ? 		C 		0.515743
C 1.0  		0.5803253498931112 		0.8283600018865781  0.5231428571428571 		Uiso   ? 		C 		0.515743
C 1.0  		0.14692739690605364 		0.0032187702930449895  0.023142857142857142 		Uiso   ? 		C 		0.489244
C 1.0  		0.14692739690605364 		0.0032187702930449895  0.5231428571428571 		Uiso   ? 		C 		0.489244
C 1.0  		0.6469728289020428 		0.0032187702930449895  0.023142857142857142 		Uiso   ? 		C 		0.489244
C 1.0  		0.6469728289020428 		0.0032187702930449895  0.5231428571428571 		Uiso   ? 		C 		0.489244
C 1.0  		0.24689861541945093 		0.20335054674884226  0.023142857142857142 		Uiso   ? 		C 		0.486958
C 1.0  		0.24689861541945093 		0.20335054674884226  0.5231428571428571 		Uiso   ? 		C 		0.486958
C 1.0  		0.7469440474154401 		0.20335054674884226  0.023142857142857142 		Uiso   ? 		C 		0.486958
C 1.0  		0.7469440474154401 		0.20335054674884226  0.5231428571428571 		Uiso   ? 		C 		0.486958
C 1.0  		0.3470591733618509 		0.4032929837756369  0.023142857142857142 		Uiso   ? 		C 		0.484981
C 1.0  		0.3470591733618509 		0.4032929837756369  0.5231428571428571 		Uiso   ? 		C 		0.484981
C 1.0  		0.8471046053578402 		0.4032929837756369  0.023142857142857142 		Uiso   ? 		C 		0.484981
C 1.0  		0.8471046053578402 		0.4032929837756369  0.5231428571428571 		Uiso   ? 		C 		0.484981
C 1.0  		0.4470303918752482 		0.6032354208024315  0.023142857142857142 		Uiso   ? 		C 		0.491131
C 1.0  		0.4470303918752482 		0.6032354208024315  0.5231428571428571 		Uiso   ? 		C 		0.491131
C 1.0  		0.9470758238712373 		0.6032354208024315  0.023142857142857142 		Uiso   ? 		C 		0.491131
C 1.0  		0.9470758238712373 		0.6032354208024315  0.5231428571428571 		Uiso   ? 		C 		0.491131
C 1.0  		0.04695617839265626 		0.8031778578292261  0.023142857142857142 		Uiso   ? 		C 		0.492378
C 1.0  		0.04695617839265626 		0.8031778578292261  0.5231428571428571 		Uiso   ? 		C 		0.492378
C 1.0  		0.5470016103886455 		0.8031778578292261  0.023142857142857142 		Uiso   ? 		C 		0.492378
C 1.0  		0.5470016103886455 		0.8031778578292261  0.5231428571428571 		Uiso   ? 		C 		0.492378
C 1.0  		0.2582589811596097 		0.11303563911457991  0.023142857142857142 		Uiso   ? 		C 		0.520267
C 1.0  		0.2582589811596097 		0.11303563911457991  0.5231428571428571 		Uiso   ? 		C 		0.520267
C 1.0  		0.7583044131555989 		0.11303563911457991  0.023142857142857142 		Uiso   ? 		C 		0.520267
C 1.0  		0.7583044131555989 		0.11303563911457991  0.5231428571428571 		Uiso   ? 		C 		0.520267
C 1.0  		0.358230199673007 		0.3129780761413745  0.023142857142857142 		Uiso   ? 		C 		0.516852
C 1.0  		0.358230199673007 		0.3129780761413745  0.5231428571428571 		Uiso   ? 		C 		0.516852
C 1.0  		0.8582756316689963 		0.3129780761413745  0.023142857142857142 		Uiso   ? 		C 		0.516852
C 1.0  		0.8582756316689963 		0.3129780761413745  0.5231428571428571 		Uiso   ? 		C 		0.516852
C 1.0  		0.4583907576154069 		0.5131098525971718  0.023142857142857142 		Uiso   ? 		C 		0.524882
C 1.0  		0.4583907576154069 		0.5131098525971718  0.5231428571428571 		Uiso   ? 		C 		0.524882
C 1.0  		0.9584361896113962 		0.5131098525971718  0.023142857142857142 		Uiso   ? 		C 		0.524882
C 1.0  		0.9584361896113962 		0.5131098525971718  0.5231428571428571 		Uiso   ? 		C 		0.524882
C 1.0  		0.058316544132815056 		0.7130522896239664  0.023142857142857142 		Uiso   ? 		C 		0.518802
C 1.0  		0.058316544132815056 		0.7130522896239664  0.5231428571428571 		Uiso   ? 		C 		0.518802
C 1.0  		0.5583619761288042 		0.7130522896239664  0.023142857142857142 		Uiso   ? 		C 		0.518802
C 1.0  		0.5583619761288042 		0.7130522896239664  0.5231428571428571 		Uiso   ? 		C 		0.518802
C 1.0  		0.15828776264621236 		0.9129947266507611  0.023142857142857142 		Uiso   ? 		C 		0.520870
C 1.0  		0.15828776264621236 		0.9129947266507611  0.5231428571428571 		Uiso   ? 		C 		0.520870
C 1.0  		0.6583331946422015 		0.9129947266507611  0.023142857142857142 		Uiso   ? 		C 		0.520870
C 1.0  		0.6583331946422015 		0.9129947266507611  0.5231428571428571 		Uiso   ? 		C 		0.520870
C 1.0  		0.3968554431895469 		0.0032187702930449895  0.023142857142857142 		Uiso   ? 		C 		0.488159
C 1.0  		0.3968554431895469 		0.0032187702930449895  0.5231428571428571 		Uiso   ? 		C 		0.488159
C 1.0  		0.8969008751855361 		0.0032187702930449895  0.023142857142857142 		Uiso   ? 		C 		0.488159
C 1.0  		0.8969008751855361 		0.0032187702930449895  0.5231428571428571 		Uiso   ? 		C 		0.488159
C 1.0  		0.4968266617029442 		0.2031612073198396  0.023142857142857142 		Uiso   ? 		C 		0.485071
C 1.0  		0.4968266617029442 		0.2031612073198396  0.5231428571428571 		Uiso   ? 		C 		0.485071
C 1.0  		0.9968720936989334 		0.2031612073198396  0.023142857142857142 		Uiso   ? 		C 		0.485071
C 1.0  		0.9968720936989334 		0.2031612073198396  0.5231428571428571 		Uiso   ? 		C 		0.485071
C 1.0  		0.09694178764935495 		0.40310364434663426  0.023142857142857142 		Uiso   ? 		C 		0.492332
C 1.0  		0.09694178764935495 		0.40310364434663426  0.5231428571428571 		Uiso   ? 		C 		0.492332
C 1.0  		0.5969872196453442 		0.40310364434663426  0.023142857142857142 		Uiso   ? 		C 		0.492332
C 1.0  		0.5969872196453442 		0.40310364434663426  0.5231428571428571 		Uiso   ? 		C 		0.492332
C 1.0  		0.19691300616275226 		0.6032354208024315  0.023142857142857142 		Uiso   ? 		C 		0.485474
C 1.0  		0.19691300616275226 		0.6032354208024315  0.5231428571428571 		Uiso   ? 		C 		0.485474
C 1.0  		0.6969584381587415 		0.6032354208024315  0.023142857142857142 		Uiso   ? 		C 		0.485474
C 1.0  		0.6969584381587415 		0.6032354208024315  0.5231428571428571 		Uiso   ? 		C 		0.485474
C 1.0  		0.29688422467614956 		0.8031778578292261  0.023142857142857142 		Uiso   ? 		C 		0.491178
C 1.0  		0.29688422467614956 		0.8031778578292261  0.5231428571428571 		Uiso   ? 		C 		0.491178
C 1.0  		0.7969296566721388 		0.8031778578292261  0.023142857142857142 		Uiso   ? 		C 		0.491178
C 1.0  		0.7969296566721388 		0.8031778578292261  0.5231428571428571 		Uiso   ? 		C 		0.491178
C 1.0  		0.34365106363980324 		0.06494342414790773  0.023142857142857142 		Uiso   ? 		C 		0.548329
C 1.0  		0.34365106363980324 		0.06494342414790773  0.5231428571428571 		Uiso   ? 		C 		0.548329
C 1.0  		0.8436964956357925 		0.06494342414790773  0.023142857142857142 		Uiso   ? 		C 		0.548329
C 1.0  		0.8436964956357925 		0.06494342414790773  0.5231428571428571 		Uiso   ? 		C 		0.548329
C 1.0  		0.44362228215320054 		0.26488586117470236  0.023142857142857142 		Uiso   ? 		C 		0.554969
C 1.0  		0.44362228215320054 		0.26488586117470236  0.5231428571428571 		Uiso   ? 		C 		0.554969
C 1.0  		0.9436677141491898 		0.26488586117470236  0.023142857142857142 		Uiso   ? 		C 		0.554969
C 1.0  		0.9436677141491898 		0.26488586117470236  0.5231428571428571 		Uiso   ? 		C 		0.554969
C 1.0  		0.043548068670608654 		0.4650176376304996  0.023142857142857142 		Uiso   ? 		C 		0.555233
C 1.0  		0.043548068670608654 		0.4650176376304996  0.5231428571428571 		Uiso   ? 		C 		0.555233
C 1.0  		0.5435935006665978 		0.4650176376304996  0.023142857142857142 		Uiso   ? 		C 		0.555233
C 1.0  		0.5435935006665978 		0.4650176376304996  0.5231428571428571 		Uiso   ? 		C 		0.555233
C 1.0  		0.14351928718400597 		0.6649600746572942  0.023142857142857142 		Uiso   ? 		C 		0.551148
C 1.0  		0.14351928718400597 		0.6649600746572942  0.5231428571428571 		Uiso   ? 		C 		0.551148
C 1.0  		0.6435647191799952 		0.6649600746572942  0.023142857142857142 		Uiso   ? 		C 		0.551148
C 1.0  		0.6435647191799952 		0.6649600746572942  0.5231428571428571 		Uiso   ? 		C 		0.551148
C 1.0  		0.24349050569740324 		0.8649025116840888  0.023142857142857142 		Uiso   ? 		C 		0.551606
C 1.0  		0.24349050569740324 		0.8649025116840888  0.5231428571428571 		Uiso   ? 		C 		0.551606
C 1.0  		0.7435359376933925 		0.8649025116840888  0.023142857142857142 		Uiso   ? 		C 		0.551606
C 1.0  		0.7435359376933925 		0.8649025116840888  0.5231428571428571 		Uiso   ? 		C 		0.551606
C 1.0  		0.4606628307634387 		0.18100849412652997  0.023142857142857142 		Uiso   ? 		C 		0.471538
C 1.0  		0.4606628307634387 		0.18100849412652997  0.5231428571428571 		Uiso   ? 		C 		0.471538
C 1.0  		0.9607082627594279 		0.18100849412652997  0.023142857142857142 		Uiso   ? 		C 		0.471538
C 1.0  		0.9607082627594279 		0.18100849412652997  0.5231428571428571 		Uiso   ? 		C 		0.471538
C 1.0  		0.06077795670984948 		0.3809509311533246  0.023142857142857142 		Uiso   ? 		C 		0.477150
C 1.0  		0.06077795670984948 		0.3809509311533246  0.5231428571428571 		Uiso   ? 		C 		0.477150
C 1.0  		0.5608233887058387 		0.3809509311533246  0.023142857142857142 		Uiso   ? 		C 		0.477150
C 1.0  		0.5608233887058387 		0.3809509311533246  0.5231428571428571 		Uiso   ? 		C 		0.477150
C 1.0  		0.16074917522324678 		0.5810827076091218  0.023142857142857142 		Uiso   ? 		C 		0.473664
C 1.0  		0.16074917522324678 		0.5810827076091218  0.5231428571428571 		Uiso   ? 		C 		0.473664
C 1.0  		0.6607946072192361 		0.5810827076091218  0.023142857142857142 		Uiso   ? 		C 		0.473664
C 1.0  		0.6607946072192361 		0.5810827076091218  0.5231428571428571 		Uiso   ? 		C 		0.473664
C 1.0  		0.2607203937366441 		0.7810251446359165  0.023142857142857142 		Uiso   ? 		C 		0.474495
C 1.0  		0.2607203937366441 		0.7810251446359165  0.5231428571428571 		Uiso   ? 		C 		0.474495
C 1.0  		0.7607658257326333 		0.7810251446359165  0.023142857142857142 		Uiso   ? 		C 		0.474495
C 1.0  		0.7607658257326333 		0.7810251446359165  0.5231428571428571 		Uiso   ? 		C 		0.474495
C 1.0  		0.36069161225004137 		0.9809675816627111  0.023142857142857142 		Uiso   ? 		C 		0.473192
C 1.0  		0.36069161225004137 		0.9809675816627111  0.5231428571428571 		Uiso   ? 		C 		0.473192
C 1.0  		0.8607370442460306 		0.9809675816627111  0.023142857142857142 		Uiso   ? 		C 		0.473192
C 1.0  		0.8607370442460306 		0.9809675816627111  0.5231428571428571 		Uiso   ? 		C 		0.473192
C 1.0  		0.38738847173941454 		0.04847089382467749  0.023142857142857142 		Uiso   ? 		C 		0.522368
C 1.0  		0.38738847173941454 		0.04847089382467749  0.5231428571428571 		Uiso   ? 		C 		0.522368
C 1.0  		0.8874339037354039 		0.04847089382467749  0.023142857142857142 		Uiso   ? 		C 		0.522368
C 1.0  		0.8874339037354039 		0.04847089382467749  0.5231428571428571 		Uiso   ? 		C 		0.522368
C 1.0  		0.48735969025281184 		0.2484133308514721  0.023142857142857142 		Uiso   ? 		C 		0.519620
C 1.0  		0.48735969025281184 		0.2484133308514721  0.5231428571428571 		Uiso   ? 		C 		0.519620
C 1.0  		0.9874051222488011 		0.2484133308514721  0.023142857142857142 		Uiso   ? 		C 		0.519620
C 1.0  		0.9874051222488011 		0.2484133308514721  0.5231428571428571 		Uiso   ? 		C 		0.519620
C 1.0  		0.08728547677021997 		0.4483557678782667  0.023142857142857142 		Uiso   ? 		C 		0.522926
C 1.0  		0.08728547677021997 		0.4483557678782667  0.5231428571428571 		Uiso   ? 		C 		0.522926
C 1.0  		0.5873309087662092 		0.4483557678782667  0.023142857142857142 		Uiso   ? 		C 		0.522926
C 1.0  		0.5873309087662092 		0.4483557678782667  0.5231428571428571 		Uiso   ? 		C 		0.522926
C 1.0  		0.18744603471261992 		0.648487544334064  0.023142857142857142 		Uiso   ? 		C 		0.522138
C 1.0  		0.18744603471261992 		0.648487544334064  0.5231428571428571 		Uiso   ? 		C 		0.522138
C 1.0  		0.6874914667086092 		0.648487544334064  0.023142857142857142 		Uiso   ? 		C 		0.522138
C 1.0  		0.6874914667086092 		0.648487544334064  0.5231428571428571 		Uiso   ? 		C 		0.522138
C 1.0  		0.28741725322601724 		0.8484299813608586  0.023142857142857142 		Uiso   ? 		C 		0.523152
C 1.0  		0.28741725322601724 		0.8484299813608586  0.5231428571428571 		Uiso   ? 		C 		0.523152
C 1.0  		0.7874626852220065 		0.8484299813608586  0.023142857142857142 		Uiso   ? 		C 		0.523152
C 1.0  		0.7874626852220065 		0.8484299813608586  0.5231428571428571 		Uiso   ? 		C 		0.523152
C 1.0  		0.4665323530625208 		0.13518835230788953  0.023142857142857142 		Uiso   ? 		C 		0.517559
C 1.0  		0.4665323530625208 		0.13518835230788953  0.5231428571428571 		Uiso   ? 		C 		0.517559
C 1.0  		0.9665777850585101 		0.13518835230788953  0.023142857142857142 		Uiso   ? 		C 		0.517559
C 1.0  		0.9665777850585101 		0.13518835230788953  0.5231428571428571 		Uiso   ? 		C 		0.517559
C 1.0  		0.06645813957992888 		0.33513078933468415  0.023142857142857142 		Uiso   ? 		C 		0.522372
C 1.0  		0.06645813957992888 		0.33513078933468415  0.5231428571428571 		Uiso   ? 		C 		0.522372
C 1.0  		0.5665035715759181 		0.33513078933468415  0.023142857142857142 		Uiso   ? 		C 		0.522372
C 1.0  		0.5665035715759181 		0.33513078933468415  0.5231428571428571 		Uiso   ? 		C 		0.522372
C 1.0  		0.16642935809332618 		0.5350732263614788  0.023142857142857142 		Uiso   ? 		C 		0.522626
C 1.0  		0.16642935809332618 		0.5350732263614788  0.5231428571428571 		Uiso   ? 		C 		0.522626
C 1.0  		0.6664747900893154 		0.5350732263614788  0.023142857142857142 		Uiso   ? 		C 		0.522626
C 1.0  		0.6664747900893154 		0.5350732263614788  0.5231428571428571 		Uiso   ? 		C 		0.522626
C 1.0  		0.26640057660672345 		0.7352050028172761  0.023142857142857142 		Uiso   ? 		C 		0.521394
C 1.0  		0.26640057660672345 		0.7352050028172761  0.5231428571428571 		Uiso   ? 		C 		0.521394
C 1.0  		0.7664460086027127 		0.7352050028172761  0.023142857142857142 		Uiso   ? 		C 		0.521394
C 1.0  		0.7664460086027127 		0.7352050028172761  0.5231428571428571 		Uiso   ? 		C 		0.521394
C 1.0  		0.3663717951201208 		0.9351474398440707  0.023142857142857142 		Uiso   ? 		C 		0.522484
C 1.0  		0.3663717951201208 		0.9351474398440707  0.5231428571428571 		Uiso   ? 		C 		0.522484
C 1.0  		0.8664172271161098 		0.9351474398440707  0.023142857142857142 		Uiso   ? 		C 		0.522484
C 1.0  		0.8664172271161098 		0.9351474398440707  0.5231428571428571 		Uiso   ? 		C 		0.522484
C 1.0  		0.25996303602063353 		0.06778351558294742  0.023142857142857142 		Uiso   ? 		C 		0.496605
C 1.0  		0.25996303602063353 		0.06778351558294742  0.5231428571428571 		Uiso   ? 		C 		0.496605
C 1.0  		0.7600084680166228 		0.06778351558294742  0.023142857142857142 		Uiso   ? 		C 		0.496605
C 1.0  		0.7600084680166228 		0.06778351558294742  0.5231428571428571 		Uiso   ? 		C 		0.496605
C 1.0  		0.35993425453403083 		0.267725952609742  0.023142857142857142 		Uiso   ? 		C 		0.495786
C 1.0  		0.35993425453403083 		0.267725952609742  0.5231428571428571 		Uiso   ? 		C 		0.495786
C 1.0  		0.85997968653002 		0.267725952609742  0.023142857142857142 		Uiso   ? 		C 		0.495786
C 1.0  		0.85997968653002 		0.267725952609742  0.5231428571428571 		Uiso   ? 		C 		0.495786
C 1.0  		0.4600948124764308 		0.46785772906553935  0.023142857142857142 		Uiso   ? 		C 		0.497113
C 1.0  		0.4600948124764308 		0.46785772906553935  0.5231428571428571 		Uiso   ? 		C 		0.497113
C 1.0  		0.96014024447242 		0.46785772906553935  0.023142857142857142 		Uiso   ? 		C 		0.497113
C 1.0  		0.96014024447242 		0.46785772906553935  0.5231428571428571 		Uiso   ? 		C 		0.497113
C 1.0  		0.060020598993838874 		0.667800166092334  0.023142857142857142 		Uiso   ? 		C 		0.497819
C 1.0  		0.060020598993838874 		0.667800166092334  0.5231428571428571 		Uiso   ? 		C 		0.497819
C 1.0  		0.5600660309898281 		0.667800166092334  0.023142857142857142 		Uiso   ? 		C 		0.497819
C 1.0  		0.5600660309898281 		0.667800166092334  0.5231428571428571 		Uiso   ? 		C 		0.497819
C 1.0  		0.15999181750723618 		0.8677426031191285  0.023142857142857142 		Uiso   ? 		C 		0.499354
C 1.0  		0.15999181750723618 		0.8677426031191285  0.5231428571428571 		Uiso   ? 		C 		0.499354
C 1.0  		0.6600372495032255 		0.8677426031191285  0.023142857142857142 		Uiso   ? 		C 		0.499354
C 1.0  		0.6600372495032255 		0.8677426031191285  0.5231428571428571 		Uiso   ? 		C 		0.499354
C 1.0  		0.46634301363351816 		0.09353367792730734  0.023142857142857142 		Uiso   ? 		C 		0.484745
C 1.0  		0.46634301363351816 		0.09353367792730734  0.5231428571428571 		Uiso   ? 		C 		0.484745
C 1.0  		0.9663884456295073 		0.09353367792730734  0.023142857142857142 		Uiso   ? 		C 		0.484745
C 1.0  		0.9663884456295073 		0.09353367792730734  0.5231428571428571 		Uiso   ? 		C 		0.484745
C 1.0  		0.06626880015092623 		0.293476114954102  0.023142857142857142 		Uiso   ? 		C 		0.491769
C 1.0  		0.06626880015092623 		0.293476114954102  0.5231428571428571 		Uiso   ? 		C 		0.491769
C 1.0  		0.5663142321469155 		0.293476114954102  0.023142857142857142 		Uiso   ? 		C 		0.491769
C 1.0  		0.5663142321469155 		0.293476114954102  0.5231428571428571 		Uiso   ? 		C 		0.491769
C 1.0  		0.16624001866432353 		0.49341855198089657  0.023142857142857142 		Uiso   ? 		C 		0.489413
C 1.0  		0.16624001866432353 		0.49341855198089657  0.5231428571428571 		Uiso   ? 		C 		0.489413
C 1.0  		0.6662854506603128 		0.49341855198089657  0.023142857142857142 		Uiso   ? 		C 		0.489413
C 1.0  		0.6662854506603128 		0.49341855198089657  0.5231428571428571 		Uiso   ? 		C 		0.489413
C 1.0  		0.26640057660672345 		0.6933609890076912  0.023142857142857142 		Uiso   ? 		C 		0.489569
C 1.0  		0.26640057660672345 		0.6933609890076912  0.5231428571428571 		Uiso   ? 		C 		0.489569
C 1.0  		0.7664460086027127 		0.6933609890076912  0.023142857142857142 		Uiso   ? 		C 		0.489569
C 1.0  		0.7664460086027127 		0.6933609890076912  0.5231428571428571 		Uiso   ? 		C 		0.489569
C 1.0  		0.3663717951201208 		0.8934927654634885  0.023142857142857142 		Uiso   ? 		C 		0.489884
C 1.0  		0.3663717951201208 		0.8934927654634885  0.5231428571428571 		Uiso   ? 		C 		0.489884
C 1.0  		0.8664172271161099 		0.8934927654634885  0.023142857142857142 		Uiso   ? 		C 		0.489884
C 1.0  		0.8664172271161099 		0.8934927654634885  0.5231428571428571 		Uiso   ? 		C 		0.489884
C 1.0  		0.3500886042258932 		0.02272073148031757  0.023142857142857142 		Uiso   ? 		C 		0.492703
C 1.0  		0.3500886042258932 		0.02272073148031757  0.5231428571428571 		Uiso   ? 		C 		0.492703
C 1.0  		0.8501340362218824 		0.02272073148031757  0.023142857142857142 		Uiso   ? 		C 		0.492703
C 1.0  		0.8501340362218824 		0.02272073148031757  0.5231428571428571 		Uiso   ? 		C 		0.492703
C 1.0  		0.4500598227392905 		0.22266316850711218  0.023142857142857142 		Uiso   ? 		C 		0.494721
C 1.0  		0.4500598227392905 		0.22266316850711218  0.5231428571428571 		Uiso   ? 		C 		0.494721
C 1.0  		0.9501052547352797 		0.22266316850711218  0.023142857142857142 		Uiso   ? 		C 		0.494721
C 1.0  		0.9501052547352797 		0.22266316850711218  0.5231428571428571 		Uiso   ? 		C 		0.494721
C 1.0  		0.05017494868570128 		0.42260560553390686  0.023142857142857142 		Uiso   ? 		C 		0.498618
C 1.0  		0.05017494868570128 		0.42260560553390686  0.5231428571428571 		Uiso   ? 		C 		0.498618
C 1.0  		0.5502203806816905 		0.42260560553390686  0.023142857142857142 		Uiso   ? 		C 		0.498618
C 1.0  		0.5502203806816905 		0.42260560553390686  0.5231428571428571 		Uiso   ? 		C 		0.498618
C 1.0  		0.1501461671990986 		0.6227373819897041  0.023142857142857142 		Uiso   ? 		C 		0.496044
C 1.0  		0.1501461671990986 		0.6227373819897041  0.5231428571428571 		Uiso   ? 		C 		0.496044
C 1.0  		0.6501915991950878 		0.6227373819897041  0.023142857142857142 		Uiso   ? 		C 		0.496044
C 1.0  		0.6501915991950878 		0.6227373819897041  0.5231428571428571 		Uiso   ? 		C 		0.496044
C 1.0  		0.25011738571249587 		0.8226798190164987  0.023142857142857142 		Uiso   ? 		C 		0.496515
C 1.0  		0.25011738571249587 		0.8226798190164987  0.5231428571428571 		Uiso   ? 		C 		0.496515
C 1.0  		0.7501628177084851 		0.8226798190164987  0.023142857142857142 		Uiso   ? 		C 		0.496515
C 1.0  		0.7501628177084851 		0.8226798190164987  0.5231428571428571 		Uiso   ? 		C 		0.496515
C 1.0  		0.2203910953590804 		0.05131098525971718  0.023142857142857142 		Uiso   ? 		C 		0.471098
C 1.0  		0.2203910953590804 		0.05131098525971718  0.5231428571428571 		Uiso   ? 		C 		0.471098
C 1.0  		0.7204365273550697 		0.05131098525971718  0.023142857142857142 		Uiso   ? 		C 		0.471098
C 1.0  		0.7204365273550697 		0.05131098525971718  0.5231428571428571 		Uiso   ? 		C 		0.471098
C 1.0  		0.3203623138724777 		0.2512534222865118  0.023142857142857142 		Uiso   ? 		C 		0.472459
C 1.0  		0.3203623138724777 		0.2512534222865118  0.5231428571428571 		Uiso   ? 		C 		0.472459
C 1.0  		0.820407745868467 		0.2512534222865118  0.023142857142857142 		Uiso   ? 		C 		0.472459
C 1.0  		0.820407745868467 		0.2512534222865118  0.5231428571428571 		Uiso   ? 		C 		0.472459
C 1.0  		0.4203335323858751 		0.4511958593133064  0.023142857142857142 		Uiso   ? 		C 		0.474097
C 1.0  		0.4203335323858751 		0.4511958593133064  0.5231428571428571 		Uiso   ? 		C 		0.474097
C 1.0  		0.9203789643818642 		0.4511958593133064  0.023142857142857142 		Uiso   ? 		C 		0.474097
C 1.0  		0.9203789643818642 		0.4511958593133064  0.5231428571428571 		Uiso   ? 		C 		0.474097
C 1.0  		0.020259318903283127 		0.6513276357691037  0.023142857142857142 		Uiso   ? 		C 		0.476001
C 1.0  		0.020259318903283127 		0.6513276357691037  0.5231428571428571 		Uiso   ? 		C 		0.476001
C 1.0  		0.5203047508992724 		0.6513276357691037  0.023142857142857142 		Uiso   ? 		C 		0.476001
C 1.0  		0.5203047508992724 		0.6513276357691037  0.5231428571428571 		Uiso   ? 		C 		0.476001
C 1.0  		0.12041987684568307 		0.8512700727958984  0.023142857142857142 		Uiso   ? 		C 		0.470376
C 1.0  		0.12041987684568307 		0.8512700727958984  0.5231428571428571 		Uiso   ? 		C 		0.470376
C 1.0  		0.6204653088416724 		0.8512700727958984  0.023142857142857142 		Uiso   ? 		C 		0.470376
C 1.0  		0.6204653088416724 		0.8512700727958984  0.5231428571428571 		Uiso   ? 		C 		0.470376
C 1.0  		0.1374604254559213 		0.04847089382467749  0.023142857142857142 		Uiso   ? 		C 		0.523046
C 1.0  		0.1374604254559213 		0.04847089382467749  0.5231428571428571 		Uiso   ? 		C 		0.523046
C 1.0  		0.6375058574519105 		0.04847089382467749  0.023142857142857142 		Uiso   ? 		C 		0.523046
C 1.0  		0.6375058574519105 		0.04847089382467749  0.5231428571428571 		Uiso   ? 		C 		0.523046
C 1.0  		0.2374316439693186 		0.2484133308514721  0.023142857142857142 		Uiso   ? 		C 		0.516774
C 1.0  		0.2374316439693186 		0.2484133308514721  0.5231428571428571 		Uiso   ? 		C 		0.516774
C 1.0  		0.7374770759653079 		0.2484133308514721  0.023142857142857142 		Uiso   ? 		C 		0.516774
C 1.0  		0.7374770759653079 		0.2484133308514721  0.5231428571428571 		Uiso   ? 		C 		0.516774
C 1.0  		0.33740286248271595 		0.44854510730726943  0.023142857142857142 		Uiso   ? 		C 		0.519229
C 1.0  		0.33740286248271595 		0.44854510730726943  0.5231428571428571 		Uiso   ? 		C 		0.519229
C 1.0  		0.8374482944787052 		0.44854510730726943  0.023142857142857142 		Uiso   ? 		C 		0.519229
C 1.0  		0.8374482944787052 		0.44854510730726943  0.5231428571428571 		Uiso   ? 		C 		0.519229
C 1.0  		0.4373740809961132 		0.648487544334064  0.023142857142857142 		Uiso   ? 		C 		0.521320
C 1.0  		0.4373740809961132 		0.648487544334064  0.5231428571428571 		Uiso   ? 		C 		0.521320
C 1.0  		0.9374195129921024 		0.648487544334064  0.023142857142857142 		Uiso   ? 		C 		0.521320
C 1.0  		0.9374195129921024 		0.648487544334064  0.5231428571428571 		Uiso   ? 		C 		0.521320
C 1.0  		0.037489206942523945 		0.8484299813608586  0.023142857142857142 		Uiso   ? 		C 		0.521170
C 1.0  		0.037489206942523945 		0.8484299813608586  0.5231428571428571 		Uiso   ? 		C 		0.521170
C 1.0  		0.5375346389385132 		0.8484299813608586  0.023142857142857142 		Uiso   ? 		C 		0.521170
C 1.0  		0.5375346389385132 		0.8484299813608586  0.5231428571428571 		Uiso   ? 		C 		0.521170
C 1.0  		0.04771353610866689 		0.08785349505722795  0.023142857142857142 		Uiso   ? 		C 		0.551334
C 1.0  		0.04771353610866689 		0.08785349505722795  0.5231428571428571 		Uiso   ? 		C 		0.551334
C 1.0  		0.5477589681046561 		0.08785349505722795  0.023142857142857142 		Uiso   ? 		C 		0.551334
C 1.0  		0.5477589681046561 		0.08785349505722795  0.5231428571428571 		Uiso   ? 		C 		0.551334
C 1.0  		0.008141595447113788 		0.11303563911457991  0.023142857142857142 		Uiso   ? 		C 		0.522713
C 1.0  		0.008141595447113788 		0.11303563911457991  0.5231428571428571 		Uiso   ? 		C 		0.522713
C 1.0  		0.5081870274431031 		0.11303563911457991  0.023142857142857142 		Uiso   ? 		C 		0.522713
C 1.0  		0.5081870274431031 		0.11303563911457991  0.5231428571428571 		Uiso   ? 		C 		0.522713
C 1.0  		0.14768475462206418 		0.28779593208402254  0.023142857142857142 		Uiso   ? 		C 		0.557546
C 1.0  		0.14768475462206418 		0.28779593208402254  0.5231428571428571 		Uiso   ? 		C 		0.557546
C 1.0  		0.6477301866180534 		0.28779593208402254  0.023142857142857142 		Uiso   ? 		C 		0.557546
C 1.0  		0.6477301866180534 		0.28779593208402254  0.5231428571428571 		Uiso   ? 		C 		0.557546
C 1.0  		0.10830215338951373 		0.3129780761413745  0.023142857142857142 		Uiso   ? 		C 		0.522014
C 1.0  		0.10830215338951373 		0.3129780761413745  0.5231428571428571 		Uiso   ? 		C 		0.522014
C 1.0  		0.6083475853855029 		0.3129780761413745  0.023142857142857142 		Uiso   ? 		C 		0.522014
C 1.0  		0.6083475853855029 		0.3129780761413745  0.5231428571428571 		Uiso   ? 		C 		0.522014
C 1.0  		0.24784531256446413 		0.4879277085398198  0.023142857142857142 		Uiso   ? 		C 		0.552239
C 1.0  		0.24784531256446413 		0.4879277085398198  0.5231428571428571 		Uiso   ? 		C 		0.552239
C 1.0  		0.7478907445604533 		0.4879277085398198  0.023142857142857142 		Uiso   ? 		C 		0.552239
C 1.0  		0.7478907445604533 		0.4879277085398198  0.5231428571428571 		Uiso   ? 		C 		0.552239
C 1.0  		0.20827337190291106 		0.5129205131681692  0.023142857142857142 		Uiso   ? 		C 		0.517494
C 1.0  		0.20827337190291106 		0.5129205131681692  0.5231428571428571 		Uiso   ? 		C 		0.517494
C 1.0  		0.7083188038989003 		0.5129205131681692  0.023142857142857142 		Uiso   ? 		C 		0.517494
C 1.0  		0.7083188038989003 		0.5129205131681692  0.5231428571428571 		Uiso   ? 		C 		0.517494
C 1.0  		0.3478165310778614 		0.6878701455666144  0.023142857142857142 		Uiso   ? 		C 		0.551632
C 1.0  		0.3478165310778614 		0.6878701455666144  0.5231428571428571 		Uiso   ? 		C 		0.551632
C 1.0  		0.8478619630738506 		0.6878701455666144  0.023142857142857142 		Uiso   ? 		C 		0.551632
C 1.0  		0.8478619630738506 		0.6878701455666144  0.5231428571428571 		Uiso   ? 		C 		0.551632
C 1.0  		0.3082445904163083 		0.7128629501949638  0.023142857142857142 		Uiso   ? 		C 		0.518272
C 1.0  		0.3082445904163083 		0.7128629501949638  0.5231428571428571 		Uiso   ? 		C 		0.518272
C 1.0  		0.8082900224122976 		0.7128629501949638  0.023142857142857142 		Uiso   ? 		C 		0.518272
C 1.0  		0.8082900224122976 		0.7128629501949638  0.5231428571428571 		Uiso   ? 		C 		0.518272
C 1.0  		0.4477877495912588 		0.8878125825934091  0.023142857142857142 		Uiso   ? 		C 		0.551022
C 1.0  		0.4477877495912588 		0.8878125825934091  0.5231428571428571 		Uiso   ? 		C 		0.551022
C 1.0  		0.947833181587248 		0.8878125825934091  0.023142857142857142 		Uiso   ? 		C 		0.551022
C 1.0  		0.947833181587248 		0.8878125825934091  0.5231428571428571 		Uiso   ? 		C 		0.551022
C 1.0  		0.40821580892970566 		0.9129947266507611  0.023142857142857142 		Uiso   ? 		C 		0.521840
C 1.0  		0.40821580892970566 		0.9129947266507611  0.5231428571428571 		Uiso   ? 		C 		0.521840
C 1.0  		0.9082612409256947 		0.9129947266507611  0.023142857142857142 		Uiso   ? 		C 		0.521840
C 1.0  		0.9082612409256947 		0.9129947266507611  0.5231428571428571 		Uiso   ? 		C 		0.521840
C 1.0  		0.09353367792730734 		0.06494342414790773  0.023142857142857142 		Uiso   ? 		C 		0.553918
C 1.0  		0.09353367792730734 		0.06494342414790773  0.5231428571428571 		Uiso   ? 		C 		0.553918
C 1.0  		0.5935791099232965 		0.06494342414790773  0.023142857142857142 		Uiso   ? 		C 		0.553918
C 1.0  		0.5935791099232965 		0.06494342414790773  0.5231428571428571 		Uiso   ? 		C 		0.553918
C 1.0  		0.19369423586970724 		0.265075200603705  0.023142857142857142 		Uiso   ? 		C 		0.552065
C 1.0  		0.19369423586970724 		0.265075200603705  0.5231428571428571 		Uiso   ? 		C 		0.552065
C 1.0  		0.6937396678656965 		0.265075200603705  0.023142857142857142 		Uiso   ? 		C 		0.552065
C 1.0  		0.6937396678656965 		0.265075200603705  0.5231428571428571 		Uiso   ? 		C 		0.552065
C 1.0  		0.29366545438310454 		0.4650176376304996  0.023142857142857142 		Uiso   ? 		C 		0.553027
C 1.0  		0.29366545438310454 		0.4650176376304996  0.5231428571428571 		Uiso   ? 		C 		0.553027
C 1.0  		0.7937108863790938 		0.4650176376304996  0.023142857142857142 		Uiso   ? 		C 		0.553027
C 1.0  		0.7937108863790938 		0.4650176376304996  0.5231428571428571 		Uiso   ? 		C 		0.553027
C 1.0  		0.3936366728965019 		0.6649600746572942  0.023142857142857142 		Uiso   ? 		C 		0.553443
C 1.0  		0.3936366728965019 		0.6649600746572942  0.5231428571428571 		Uiso   ? 		C 		0.553443
C 1.0  		0.8936821048924911 		0.6649600746572942  0.023142857142857142 		Uiso   ? 		C 		0.553443
C 1.0  		0.8936821048924911 		0.6649600746572942  0.5231428571428571 		Uiso   ? 		C 		0.553443
C 1.0  		0.4936078914098992 		0.8650918511130915  0.023142857142857142 		Uiso   ? 		C 		0.550977
C 1.0  		0.4936078914098992 		0.8650918511130915  0.5231428571428571 		Uiso   ? 		C 		0.550977
C 1.0  		0.9936533234058884 		0.8650918511130915  0.023142857142857142 		Uiso   ? 		C 		0.550977
C 1.0  		0.9936533234058884 		0.8650918511130915  0.5231428571428571 		Uiso   ? 		C 		0.550977
C 1.0  		0.10016055794239996 		0.02272073148031757  0.023142857142857142 		Uiso   ? 		C 		0.496078
C 1.0  		0.10016055794239996 		0.02272073148031757  0.5231428571428571 		Uiso   ? 		C 		0.496078
C 1.0  		0.6002059899383891 		0.02272073148031757  0.023142857142857142 		Uiso   ? 		C 		0.496078
C 1.0  		0.6002059899383891 		0.02272073148031757  0.5231428571428571 		Uiso   ? 		C 		0.496078
C 1.0  		0.20013177645579724 		0.22285250793611486  0.023142857142857142 		Uiso   ? 		C 		0.498012
C 1.0  		0.20013177645579724 		0.22285250793611486  0.5231428571428571 		Uiso   ? 		C 		0.498012
C 1.0  		0.7001772084517864 		0.22285250793611486  0.023142857142857142 		Uiso   ? 		C 		0.498012
C 1.0  		0.7001772084517864 		0.22285250793611486  0.5231428571428571 		Uiso   ? 		C 		0.498012
C 1.0  		0.30029233439819725 		0.4227949449629095  0.023142857142857142 		Uiso   ? 		C 		0.493907
C 1.0  		0.30029233439819725 		0.4227949449629095  0.5231428571428571 		Uiso   ? 		C 		0.493907
C 1.0  		0.8003377663941865 		0.4227949449629095  0.023142857142857142 		Uiso   ? 		C 		0.493907
C 1.0  		0.8003377663941865 		0.4227949449629095  0.5231428571428571 		Uiso   ? 		C 		0.493907
C 1.0  		0.40026355291159443 		0.6227373819897041  0.023142857142857142 		Uiso   ? 		C 		0.500326
C 1.0  		0.40026355291159443 		0.6227373819897041  0.5231428571428571 		Uiso   ? 		C 		0.500326
C 1.0  		0.9003089849075837 		0.6227373819897041  0.023142857142857142 		Uiso   ? 		C 		0.500326
C 1.0  		0.9003089849075837 		0.6227373819897041  0.5231428571428571 		Uiso   ? 		C 		0.500326
C 1.0  		0.00018933942900259607 		0.8226798190164987  0.023142857142857142 		Uiso   ? 		C 		0.498968
C 1.0  		0.00018933942900259607 		0.8226798190164987  0.5231428571428571 		Uiso   ? 		C 		0.498968
C 1.0  		0.5002347714249918 		0.8226798190164987  0.023142857142857142 		Uiso   ? 		C 		0.498968
C 1.0  		0.5002347714249918 		0.8226798190164987  0.5231428571428571 		Uiso   ? 		C 		0.498968
C 1.0  		0.21641496735002486 		0.09353367792730734  0.023142857142857142 		Uiso   ? 		C 		0.490683
C 1.0  		0.21641496735002486 		0.09353367792730734  0.5231428571428571 		Uiso   ? 		C 		0.490683
C 1.0  		0.716460399346014 		0.09353367792730734  0.023142857142857142 		Uiso   ? 		C 		0.490683
C 1.0  		0.716460399346014 		0.09353367792730734  0.5231428571428571 		Uiso   ? 		C 		0.490683
C 1.0  		0.31638618586342215 		0.2936654543831046  0.023142857142857142 		Uiso   ? 		C 		0.486120
C 1.0  		0.31638618586342215 		0.2936654543831046  0.5231428571428571 		Uiso   ? 		C 		0.486120
C 1.0  		0.8164316178594114 		0.2936654543831046  0.023142857142857142 		Uiso   ? 		C 		0.486120
C 1.0  		0.8164316178594114 		0.2936654543831046  0.5231428571428571 		Uiso   ? 		C 		0.486120
C 1.0  		0.4163574043768194 		0.49360789140989925  0.023142857142857142 		Uiso   ? 		C 		0.490187
C 1.0  		0.4163574043768194 		0.49360789140989925  0.5231428571428571 		Uiso   ? 		C 		0.490187
C 1.0  		0.9164028363728086 		0.49360789140989925  0.023142857142857142 		Uiso   ? 		C 		0.490187
C 1.0  		0.9164028363728086 		0.49360789140989925  0.5231428571428571 		Uiso   ? 		C 		0.490187
C 1.0  		0.01628319089422755 		0.6935503284366938  0.023142857142857142 		Uiso   ? 		C 		0.493236
C 1.0  		0.01628319089422755 		0.6935503284366938  0.5231428571428571 		Uiso   ? 		C 		0.493236
C 1.0  		0.5163286228902167 		0.6935503284366938  0.023142857142857142 		Uiso   ? 		C 		0.493236
C 1.0  		0.5163286228902167 		0.6935503284366938  0.5231428571428571 		Uiso   ? 		C 		0.493236
C 1.0  		0.11644374883662749 		0.8934927654634885  0.023142857142857142 		Uiso   ? 		C 		0.488519
C 1.0  		0.11644374883662749 		0.8934927654634885  0.5231428571428571 		Uiso   ? 		C 		0.488519
C 1.0  		0.6164891808326167 		0.8934927654634885  0.023142857142857142 		Uiso   ? 		C 		0.488519
C 1.0  		0.6164891808326167 		0.8934927654634885  0.5231428571428571 		Uiso   ? 		C 		0.488519
C 1.0  		0.21073478447994545 		0.18100849412652997  0.023142857142857142 		Uiso   ? 		C 		0.471669
C 1.0  		0.21073478447994545 		0.18100849412652997  0.5231428571428571 		Uiso   ? 		C 		0.471669
C 1.0  		0.7107802164759347 		0.18100849412652997  0.023142857142857142 		Uiso   ? 		C 		0.471669
C 1.0  		0.7107802164759347 		0.18100849412652997  0.5231428571428571 		Uiso   ? 		C 		0.471669
C 1.0  		0.3107060029933428 		0.38114027058232725  0.023142857142857142 		Uiso   ? 		C 		0.471936
C 1.0  		0.3107060029933428 		0.38114027058232725  0.5231428571428571 		Uiso   ? 		C 		0.471936
C 1.0  		0.810751434989332 		0.38114027058232725  0.023142857142857142 		Uiso   ? 		C 		0.471936
C 1.0  		0.810751434989332 		0.38114027058232725  0.5231428571428571 		Uiso   ? 		C 		0.471936
C 1.0  		0.41067722150674 		0.5810827076091218  0.023142857142857142 		Uiso   ? 		C 		0.475950
C 1.0  		0.41067722150674 		0.5810827076091218  0.5231428571428571 		Uiso   ? 		C 		0.475950
C 1.0  		0.9107226535027292 		0.5810827076091218  0.023142857142857142 		Uiso   ? 		C 		0.475950
C 1.0  		0.9107226535027292 		0.5810827076091218  0.5231428571428571 		Uiso   ? 		C 		0.475950
C 1.0  		0.010792347453150797 		0.7810251446359165  0.023142857142857142 		Uiso   ? 		C 		0.471959
C 1.0  		0.010792347453150797 		0.7810251446359165  0.5231428571428571 		Uiso   ? 		C 		0.471959
C 1.0  		0.51083777944914 		0.7810251446359165  0.023142857142857142 		Uiso   ? 		C 		0.471959
C 1.0  		0.51083777944914 		0.7810251446359165  0.5231428571428571 		Uiso   ? 		C 		0.471959
C 1.0  		0.1107635659665481 		0.9809675816627111  0.023142857142857142 		Uiso   ? 		C 		0.471864
C 1.0  		0.1107635659665481 		0.9809675816627111  0.5231428571428571 		Uiso   ? 		C 		0.471864
C 1.0  		0.6108089979625373 		0.9809675816627111  0.023142857142857142 		Uiso   ? 		C 		0.471864
C 1.0  		0.6108089979625373 		0.9809675816627111  0.5231428571428571 		Uiso   ? 		C 		0.471864
C 1.0  		0.21660430677902748 		0.13518835230788953  0.023142857142857142 		Uiso   ? 		C 		0.517863
C 1.0  		0.21660430677902748 		0.13518835230788953  0.5231428571428571 		Uiso   ? 		C 		0.517863
C 1.0  		0.7166497387750167 		0.13518835230788953  0.023142857142857142 		Uiso   ? 		C 		0.517863
C 1.0  		0.7166497387750167 		0.13518835230788953  0.5231428571428571 		Uiso   ? 		C 		0.517863
C 1.0  		0.31657552529242483 		0.3353201287636868  0.023142857142857142 		Uiso   ? 		C 		0.515639
C 1.0  		0.31657552529242483 		0.3353201287636868  0.5231428571428571 		Uiso   ? 		C 		0.515639
C 1.0  		0.816620957288414 		0.3353201287636868  0.023142857142857142 		Uiso   ? 		C 		0.515639
C 1.0  		0.816620957288414 		0.3353201287636868  0.5231428571428571 		Uiso   ? 		C 		0.515639
C 1.0  		0.41654674380582213 		0.5352625657904815  0.023142857142857142 		Uiso   ? 		C 		0.522828
C 1.0  		0.41654674380582213 		0.5352625657904815  0.5231428571428571 		Uiso   ? 		C 		0.522828
C 1.0  		0.9165921758018114 		0.5352625657904815  0.023142857142857142 		Uiso   ? 		C 		0.522828
C 1.0  		0.9165921758018114 		0.5352625657904815  0.5231428571428571 		Uiso   ? 		C 		0.522828
C 1.0  		0.01647253032323019 		0.7352050028172761  0.023142857142857142 		Uiso   ? 		C 		0.517151
C 1.0  		0.01647253032323019 		0.7352050028172761  0.5231428571428571 		Uiso   ? 		C 		0.517151
C 1.0  		0.5165179623192194 		0.7352050028172761  0.023142857142857142 		Uiso   ? 		C 		0.517151
C 1.0  		0.5165179623192194 		0.7352050028172761  0.5231428571428571 		Uiso   ? 		C 		0.517151
C 1.0  		0.11663308826563014 		0.9353367792730733  0.023142857142857142 		Uiso   ? 		C 		0.516929
C 1.0  		0.11663308826563014 		0.9353367792730733  0.5231428571428571 		Uiso   ? 		C 		0.516929
C 1.0  		0.6166785202616193 		0.9353367792730733  0.023142857142857142 		Uiso   ? 		C 		0.516929
C 1.0  		0.6166785202616193 		0.9353367792730733  0.5231428571428571 		Uiso   ? 		C 		0.516929
C 1.0  		0.29783092182116283 		0.08785349505722795  0.12314285714285714 		Uiso   ? 		C 		0.553050
C 1.0  		0.29783092182116283 		0.08785349505722795  0.6231428571428571 		Uiso   ? 		C 		0.553050
C 1.0  		0.797876353817152 		0.08785349505722795  0.12314285714285714 		Uiso   ? 		C 		0.553050
C 1.0  		0.797876353817152 		0.08785349505722795  0.6231428571428571 		Uiso   ? 		C 		0.553050
C 1.0  		0.39780214033456013 		0.28779593208402254  0.12314285714285714 		Uiso   ? 		C 		0.552565
C 1.0  		0.39780214033456013 		0.28779593208402254  0.6231428571428571 		Uiso   ? 		C 		0.552565
C 1.0  		0.8978475723305493 		0.28779593208402254  0.12314285714285714 		Uiso   ? 		C 		0.552565
C 1.0  		0.8978475723305493 		0.28779593208402254  0.6231428571428571 		Uiso   ? 		C 		0.552565
C 1.0  		0.49777335884795737 		0.4879277085398198  0.12314285714285714 		Uiso   ? 		C 		0.552902
C 1.0  		0.49777335884795737 		0.4879277085398198  0.6231428571428571 		Uiso   ? 		C 		0.552902
C 1.0  		0.9978187908439465 		0.4879277085398198  0.12314285714285714 		Uiso   ? 		C 		0.552902
C 1.0  		0.9978187908439465 		0.4879277085398198  0.6231428571428571 		Uiso   ? 		C 		0.552902
C 1.0  		0.09788848479436817 		0.6878701455666144  0.12314285714285714 		Uiso   ? 		C 		0.554002
C 1.0  		0.09788848479436817 		0.6878701455666144  0.6231428571428571 		Uiso   ? 		C 		0.554002
C 1.0  		0.5979339167903573 		0.6878701455666144  0.12314285714285714 		Uiso   ? 		C 		0.554002
C 1.0  		0.5979339167903573 		0.6878701455666144  0.6231428571428571 		Uiso   ? 		C 		0.554002
C 1.0  		0.19785970330776545 		0.8878125825934091  0.12314285714285714 		Uiso   ? 		C 		0.557842
C 1.0  		0.19785970330776545 		0.8878125825934091  0.6231428571428571 		Uiso   ? 		C 		0.557842
C 1.0  		0.6979051353037548 		0.8878125825934091  0.12314285714285714 		Uiso   ? 		C 		0.557842
C 1.0  		0.6979051353037548 		0.8878125825934091  0.6231428571428571 		Uiso   ? 		C 		0.557842
C 1.0  		0.4703191416425737 		0.05112164583071454  0.12314285714285714 		Uiso   ? 		C 		0.472605
C 1.0  		0.4703191416425737 		0.05112164583071454  0.6231428571428571 		Uiso   ? 		C 		0.472605
C 1.0  		0.9703645736385629 		0.05112164583071454  0.12314285714285714 		Uiso   ? 		C 		0.472605
C 1.0  		0.9703645736385629 		0.05112164583071454  0.6231428571428571 		Uiso   ? 		C 		0.472605
C 1.0  		0.0702449281599818 		0.2512534222865118  0.12314285714285714 		Uiso   ? 		C 		0.475420
C 1.0  		0.0702449281599818 		0.2512534222865118  0.6231428571428571 		Uiso   ? 		C 		0.475420
C 1.0  		0.570290360155971 		0.2512534222865118  0.12314285714285714 		Uiso   ? 		C 		0.475420
C 1.0  		0.570290360155971 		0.2512534222865118  0.6231428571428571 		Uiso   ? 		C 		0.475420
C 1.0  		0.17021614667337912 		0.4511958593133064  0.12314285714285714 		Uiso   ? 		C 		0.471446
C 1.0  		0.17021614667337912 		0.4511958593133064  0.6231428571428571 		Uiso   ? 		C 		0.471446
C 1.0  		0.6702615786693683 		0.4511958593133064  0.12314285714285714 		Uiso   ? 		C 		0.471446
C 1.0  		0.6702615786693683 		0.4511958593133064  0.6231428571428571 		Uiso   ? 		C 		0.471446
C 1.0  		0.270376704615779 		0.651138296340101  0.12314285714285714 		Uiso   ? 		C 		0.470977
C 1.0  		0.270376704615779 		0.651138296340101  0.6231428571428571 		Uiso   ? 		C 		0.470977
C 1.0  		0.7704221366117683 		0.651138296340101  0.12314285714285714 		Uiso   ? 		C 		0.470977
C 1.0  		0.7704221366117683 		0.651138296340101  0.6231428571428571 		Uiso   ? 		C 		0.470977
C 1.0  		0.37034792312917636 		0.8510807333668957  0.12314285714285714 		Uiso   ? 		C 		0.474380
C 1.0  		0.37034792312917636 		0.8510807333668957  0.6231428571428571 		Uiso   ? 		C 		0.474380
C 1.0  		0.8703933551251657 		0.8510807333668957  0.12314285714285714 		Uiso   ? 		C 		0.474380
C 1.0  		0.8703933551251657 		0.8510807333668957  0.6231428571428571 		Uiso   ? 		C 		0.474380
C 1.0  		0.4301791826940126 		0.028211574921394315  0.12314285714285714 		Uiso   ? 		C 		0.517716
C 1.0  		0.4301791826940126 		0.028211574921394315  0.6231428571428571 		Uiso   ? 		C 		0.517716
C 1.0  		0.930224614690002 		0.028211574921394315  0.12314285714285714 		Uiso   ? 		C 		0.517716
C 1.0  		0.930224614690002 		0.028211574921394315  0.6231428571428571 		Uiso   ? 		C 		0.517716
C 1.0  		0.03010496921142077 		0.22834335137719158  0.12314285714285714 		Uiso   ? 		C 		0.519470
C 1.0  		0.03010496921142077 		0.22834335137719158  0.6231428571428571 		Uiso   ? 		C 		0.519470
C 1.0  		0.53015040120741 		0.22834335137719158  0.12314285714285714 		Uiso   ? 		C 		0.519470
C 1.0  		0.53015040120741 		0.22834335137719158  0.6231428571428571 		Uiso   ? 		C 		0.519470
C 1.0  		0.1302655271538207 		0.42828578840398623  0.12314285714285714 		Uiso   ? 		C 		0.519962
C 1.0  		0.1302655271538207 		0.42828578840398623  0.6231428571428571 		Uiso   ? 		C 		0.519962
C 1.0  		0.63031095914981 		0.42828578840398623  0.12314285714285714 		Uiso   ? 		C 		0.519962
C 1.0  		0.63031095914981 		0.42828578840398623  0.6231428571428571 		Uiso   ? 		C 		0.519962
C 1.0  		0.23023674566721802 		0.6282282254307808  0.12314285714285714 		Uiso   ? 		C 		0.520644
C 1.0  		0.23023674566721802 		0.6282282254307808  0.6231428571428571 		Uiso   ? 		C 		0.520644
C 1.0  		0.7302821776632072 		0.6282282254307808  0.12314285714285714 		Uiso   ? 		C 		0.520644
C 1.0  		0.7302821776632072 		0.6282282254307808  0.6231428571428571 		Uiso   ? 		C 		0.520644
C 1.0  		0.3302079641806153 		0.8283600018865781  0.12314285714285714 		Uiso   ? 		C 		0.520647
C 1.0  		0.3302079641806153 		0.8283600018865781  0.6231428571428571 		Uiso   ? 		C 		0.520647
C 1.0  		0.8302533961766045 		0.8283600018865781  0.12314285714285714 		Uiso   ? 		C 		0.520647
C 1.0  		0.8302533961766045 		0.8283600018865781  0.6231428571428571 		Uiso   ? 		C 		0.520647
C 1.0  		0.010034989737140256 		0.06778351558294742  0.12314285714285714 		Uiso   ? 		C 		0.494027
C 1.0  		0.010034989737140256 		0.06778351558294742  0.6231428571428571 		Uiso   ? 		C 		0.494027
C 1.0  		0.5100804217331295 		0.06778351558294742  0.12314285714285714 		Uiso   ? 		C 		0.494027
C 1.0  		0.5100804217331295 		0.06778351558294742  0.6231428571428571 		Uiso   ? 		C 		0.494027
C 1.0  		0.11000620825053754 		0.267725952609742  0.12314285714285714 		Uiso   ? 		C 		0.498568
C 1.0  		0.11000620825053754 		0.267725952609742  0.6231428571428571 		Uiso   ? 		C 		0.498568
C 1.0  		0.6100516402465268 		0.267725952609742  0.12314285714285714 		Uiso   ? 		C 		0.498568
C 1.0  		0.6100516402465268 		0.267725952609742  0.6231428571428571 		Uiso   ? 		C 		0.498568
C 1.0  		0.20997742676393485 		0.4676683896365367  0.12314285714285714 		Uiso   ? 		C 		0.499150
C 1.0  		0.20997742676393485 		0.4676683896365367  0.6231428571428571 		Uiso   ? 		C 		0.499150
C 1.0  		0.7100228587599241 		0.4676683896365367  0.12314285714285714 		Uiso   ? 		C 		0.499150
C 1.0  		0.7100228587599241 		0.4676683896365367  0.6231428571428571 		Uiso   ? 		C 		0.499150
C 1.0  		0.3099486452773321 		0.667800166092334  0.12314285714285714 		Uiso   ? 		C 		0.494514
C 1.0  		0.3099486452773321 		0.667800166092334  0.6231428571428571 		Uiso   ? 		C 		0.494514
C 1.0  		0.8099940772733213 		0.667800166092334  0.12314285714285714 		Uiso   ? 		C 		0.494514
C 1.0  		0.8099940772733213 		0.667800166092334  0.6231428571428571 		Uiso   ? 		C 		0.494514
C 1.0  		0.4099198637907295 		0.8677426031191285  0.12314285714285714 		Uiso   ? 		C 		0.499134
C 1.0  		0.4099198637907295 		0.8677426031191285  0.6231428571428571 		Uiso   ? 		C 		0.499134
C 1.0  		0.9099652957867187 		0.8677426031191285  0.12314285714285714 		Uiso   ? 		C 		0.499134
C 1.0  		0.9099652957867187 		0.8677426031191285  0.6231428571428571 		Uiso   ? 		C 		0.499134
C 1.0  		0.18025113641051937 		0.02840091435039696  0.12314285714285714 		Uiso   ? 		C 		0.520158
C 1.0  		0.18025113641051937 		0.02840091435039696  0.6231428571428571 		Uiso   ? 		C 		0.520158
C 1.0  		0.6802965684065085 		0.02840091435039696  0.12314285714285714 		Uiso   ? 		C 		0.520158
C 1.0  		0.6802965684065085 		0.02840091435039696  0.6231428571428571 		Uiso   ? 		C 		0.520158
C 1.0  		0.2802223549239167 		0.22834335137719158  0.12314285714285714 		Uiso   ? 		C 		0.517038
C 1.0  		0.2802223549239167 		0.22834335137719158  0.6231428571428571 		Uiso   ? 		C 		0.517038
C 1.0  		0.780267786919906 		0.22834335137719158  0.12314285714285714 		Uiso   ? 		C 		0.517038
C 1.0  		0.780267786919906 		0.22834335137719158  0.6231428571428571 		Uiso   ? 		C 		0.517038
C 1.0  		0.380193573437314 		0.42828578840398623  0.12314285714285714 		Uiso   ? 		C 		0.515641
C 1.0  		0.380193573437314 		0.42828578840398623  0.6231428571428571 		Uiso   ? 		C 		0.515641
C 1.0  		0.8802390054333032 		0.42828578840398623  0.12314285714285714 		Uiso   ? 		C 		0.515641
C 1.0  		0.8802390054333032 		0.42828578840398623  0.6231428571428571 		Uiso   ? 		C 		0.515641
C 1.0  		0.48016479195071127 		0.6284175648597835  0.12314285714285714 		Uiso   ? 		C 		0.523190
C 1.0  		0.48016479195071127 		0.6284175648597835  0.6231428571428571 		Uiso   ? 		C 		0.523190
C 1.0  		0.9802102239467004 		0.6284175648597835  0.12314285714285714 		Uiso   ? 		C 		0.523190
C 1.0  		0.9802102239467004 		0.6284175648597835  0.6231428571428571 		Uiso   ? 		C 		0.523190
C 1.0  		0.08027991789712202 		0.8283600018865781  0.12314285714285714 		Uiso   ? 		C 		0.519566
C 1.0  		0.08027991789712202 		0.8283600018865781  0.6231428571428571 		Uiso   ? 		C 		0.519566
C 1.0  		0.5803253498931112 		0.8283600018865781  0.12314285714285714 		Uiso   ? 		C 		0.519566
C 1.0  		0.5803253498931112 		0.8283600018865781  0.6231428571428571 		Uiso   ? 		C 		0.519566
C 1.0  		0.14692739690605364 		0.0032187702930449895  0.12314285714285714 		Uiso   ? 		C 		0.490273
C 1.0  		0.14692739690605364 		0.0032187702930449895  0.6231428571428571 		Uiso   ? 		C 		0.490273
C 1.0  		0.6469728289020428 		0.0032187702930449895  0.12314285714285714 		Uiso   ? 		C 		0.490273
C 1.0  		0.6469728289020428 		0.0032187702930449895  0.6231428571428571 		Uiso   ? 		C 		0.490273
C 1.0  		0.24689861541945093 		0.20335054674884226  0.12314285714285714 		Uiso   ? 		C 		0.486179
C 1.0  		0.24689861541945093 		0.20335054674884226  0.6231428571428571 		Uiso   ? 		C 		0.486179
C 1.0  		0.7469440474154401 		0.20335054674884226  0.12314285714285714 		Uiso   ? 		C 		0.486179
C 1.0  		0.7469440474154401 		0.20335054674884226  0.6231428571428571 		Uiso   ? 		C 		0.486179
C 1.0  		0.3470591733618509 		0.4032929837756369  0.12314285714285714 		Uiso   ? 		C 		0.486964
C 1.0  		0.3470591733618509 		0.4032929837756369  0.6231428571428571 		Uiso   ? 		C 		0.486964
C 1.0  		0.8471046053578402 		0.4032929837756369  0.12314285714285714 		Uiso   ? 		C 		0.486964
C 1.0  		0.8471046053578402 		0.4032929837756369  0.6231428571428571 		Uiso   ? 		C 		0.486964
C 1.0  		0.4470303918752482 		0.6032354208024315  0.12314285714285714 		Uiso   ? 		C 		0.490763
C 1.0  		0.4470303918752482 		0.6032354208024315  0.6231428571428571 		Uiso   ? 		C 		0.490763
C 1.0  		0.9470758238712373 		0.6032354208024315  0.12314285714285714 		Uiso   ? 		C 		0.490763
C 1.0  		0.9470758238712373 		0.6032354208024315  0.6231428571428571 		Uiso   ? 		C 		0.490763
C 1.0  		0.04695617839265626 		0.8031778578292261  0.12314285714285714 		Uiso   ? 		C 		0.490535
C 1.0  		0.04695617839265626 		0.8031778578292261  0.6231428571428571 		Uiso   ? 		C 		0.490535
C 1.0  		0.5470016103886455 		0.8031778578292261  0.12314285714285714 		Uiso   ? 		C 		0.490535
C 1.0  		0.5470016103886455 		0.8031778578292261  0.6231428571428571 		Uiso   ? 		C 		0.490535
C 1.0  		0.2582589811596097 		0.11303563911457991  0.12314285714285714 		Uiso   ? 		C 		0.517681
C 1.0  		0.2582589811596097 		0.11303563911457991  0.6231428571428571 		Uiso   ? 		C 		0.517681
C 1.0  		0.7583044131555989 		0.11303563911457991  0.12314285714285714 		Uiso   ? 		C 		0.517681
C 1.0  		0.7583044131555989 		0.11303563911457991  0.6231428571428571 		Uiso   ? 		C 		0.517681
C 1.0  		0.358230199673007 		0.3129780761413745  0.12314285714285714 		Uiso   ? 		C 		0.519216
C 1.0  		0.358230199673007 		0.3129780761413745  0.6231428571428571 		Uiso   ? 		C 		0.519216
C 1.0  		0.8582756316689963 		0.3129780761413745  0.12314285714285714 		Uiso   ? 		C 		0.519216
C 1.0  		0.8582756316689963 		0.3129780761413745  0.6231428571428571 		Uiso   ? 		C 		0.519216
C 1.0  		0.4583907576154069 		0.5131098525971718  0.12314285714285714 		Uiso   ? 		C 		0.525135
C 1.0  		0.4583907576154069 		0.5131098525971718  0.6231428571428571 		Uiso   ? 		C 		0.525135
C 1.0  		0.9584361896113962 		0.5131098525971718  0.12314285714285714 		Uiso   ? 		C 		0.525135
C 1.0  		0.9584361896113962 		0.5131098525971718  0.6231428571428571 		Uiso   ? 		C 		0.525135
C 1.0  		0.058316544132815056 		0.7130522896239664  0.12314285714285714 		Uiso   ? 		C 		0.519466
C 1.0  		0.058316544132815056 		0.7130522896239664  0.6231428571428571 		Uiso   ? 		C 		0.519466
C 1.0  		0.5583619761288042 		0.7130522896239664  0.12314285714285714 		Uiso   ? 		C 		0.519466
C 1.0  		0.5583619761288042 		0.7130522896239664  0.6231428571428571 		Uiso   ? 		C 		0.519466
C 1.0  		0.15828776264621236 		0.9129947266507611  0.12314285714285714 		Uiso   ? 		C 		0.521296
C 1.0  		0.15828776264621236 		0.9129947266507611  0.6231428571428571 		Uiso   ? 		C 		0.521296
C 1.0  		0.6583331946422015 		0.9129947266507611  0.12314285714285714 		Uiso   ? 		C 		0.521296
C 1.0  		0.6583331946422015 		0.9129947266507611  0.6231428571428571 		Uiso   ? 		C 		0.521296
C 1.0  		0.3968554431895469 		0.0032187702930449895  0.12314285714285714 		Uiso   ? 		C 		0.489180
C 1.0  		0.3968554431895469 		0.0032187702930449895  0.6231428571428571 		Uiso   ? 		C 		0.489180
C 1.0  		0.8969008751855361 		0.0032187702930449895  0.12314285714285714 		Uiso   ? 		C 		0.489180
C 1.0  		0.8969008751855361 		0.0032187702930449895  0.6231428571428571 		Uiso   ? 		C 		0.489180
C 1.0  		0.4968266617029442 		0.2031612073198396  0.12314285714285714 		Uiso   ? 		C 		0.485943
C 1.0  		0.4968266617029442 		0.2031612073198396  0.6231428571428571 		Uiso   ? 		C 		0.485943
C 1.0  		0.9968720936989334 		0.2031612073198396  0.12314285714285714 		Uiso   ? 		C 		0.485943
C 1.0  		0.9968720936989334 		0.2031612073198396  0.6231428571428571 		Uiso   ? 		C 		0.485943
C 1.0  		0.09694178764935495 		0.40310364434663426  0.12314285714285714 		Uiso   ? 		C 		0.491761
C 1.0  		0.09694178764935495 		0.40310364434663426  0.6231428571428571 		Uiso   ? 		C 		0.491761
C 1.0  		0.5969872196453442 		0.40310364434663426  0.12314285714285714 		Uiso   ? 		C 		0.491761
C 1.0  		0.5969872196453442 		0.40310364434663426  0.6231428571428571 		Uiso   ? 		C 		0.491761
C 1.0  		0.19691300616275226 		0.6032354208024315  0.12314285714285714 		Uiso   ? 		C 		0.486283
C 1.0  		0.19691300616275226 		0.6032354208024315  0.6231428571428571 		Uiso   ? 		C 		0.486283
C 1.0  		0.6969584381587415 		0.6032354208024315  0.12314285714285714 		Uiso   ? 		C 		0.486283
C 1.0  		0.6969584381587415 		0.6032354208024315  0.6231428571428571 		Uiso   ? 		C 		0.486283
C 1.0  		0.29688422467614956 		0.8031778578292261  0.12314285714285714 		Uiso   ? 		C 		0.490446
C 1.0  		0.29688422467614956 		0.8031778578292261  0.6231428571428571 		Uiso   ? 		C 		0.490446
C 1.0  		0.7969296566721388 		0.8031778578292261  0.12314285714285714 		Uiso   ? 		C 		0.490446
C 1.0  		0.7969296566721388 		0.8031778578292261  0.6231428571428571 		Uiso   ? 		C 		0.490446
C 1.0  		0.34365106363980324 		0.06494342414790773  0.12314285714285714 		Uiso   ? 		C 		0.551933
C 1.0  		0.34365106363980324 		0.06494342414790773  0.6231428571428571 		Uiso   ? 		C 		0.551933
C 1.0  		0.8436964956357925 		0.06494342414790773  0.12314285714285714 		Uiso   ? 		C 		0.551933
C 1.0  		0.8436964956357925 		0.06494342414790773  0.6231428571428571 		Uiso   ? 		C 		0.551933
C 1.0  		0.44362228215320054 		0.26488586117470236  0.12314285714285714 		Uiso   ? 		C 		0.554165
C 1.0  		0.44362228215320054 		0.26488586117470236  0.6231428571428571 		Uiso   ? 		C 		0.554165
C 1.0  		0.9436677141491898 		0.26488586117470236  0.12314285714285714 		Uiso   ? 		C 		0.554165
C 1.0  		0.9436677141491898 		0.26488586117470236  0.6231428571428571 		Uiso   ? 		C 		0.554165
C 1.0  		0.043548068670608654 		0.4650176376304996  0.12314285714285714 		Uiso   ? 		C 		0.554589
C 1.0  		0.043548068670608654 		0.4650176376304996  0.6231428571428571 		Uiso   ? 		C 		0.554589
C 1.0  		0.5435935006665978 		0.4650176376304996  0.12314285714285714 		Uiso   ? 		C 		0.554589
C 1.0  		0.5435935006665978 		0.4650176376304996  0.6231428571428571 		Uiso   ? 		C 		0.554589
C 1.0  		0.14351928718400597 		0.6649600746572942  0.12314285714285714 		Uiso   ? 		C 		0.553409
C 1.0  		0.14351928718400597 		0.6649600746572942  0.6231428571428571 		Uiso   ? 		C 		0.553409
C 1.0  		0.6435647191799952 		0.6649600746572942  0.12314285714285714 		Uiso   ? 		C 		0.553409
C 1.0  		0.6435647191799952 		0.6649600746572942  0.6231428571428571 		Uiso   ? 		C 		0.553409
C 1.0  		0.24349050569740324 		0.8649025116840888  0.12314285714285714 		Uiso   ? 		C 		0.554988
C 1.0  		0.24349050569740324 		0.8649025116840888  0.6231428571428571 		Uiso   ? 		C 		0.554988
C 1.0  		0.7435359376933925 		0.8649025116840888  0.12314285714285714 		Uiso   ? 		C 		0.554988
C 1.0  		0.7435359376933925 		0.8649025116840888  0.6231428571428571 		Uiso   ? 		C 		0.554988
C 1.0  		0.4606628307634387 		0.18100849412652997  0.12314285714285714 		Uiso   ? 		C 		0.469678
C 1.0  		0.4606628307634387 		0.18100849412652997  0.6231428571428571 		Uiso   ? 		C 		0.469678
C 1.0  		0.9607082627594279 		0.18100849412652997  0.12314285714285714 		Uiso   ? 		C 		0.469678
C 1.0  		0.9607082627594279 		0.18100849412652997  0.6231428571428571 		Uiso   ? 		C 		0.469678
C 1.0  		0.06077795670984948 		0.3809509311533246  0.12314285714285714 		Uiso   ? 		C 		0.476533
C 1.0  		0.06077795670984948 		0.3809509311533246  0.6231428571428571 		Uiso   ? 		C 		0.476533
C 1.0  		0.5608233887058387 		0.3809509311533246  0.12314285714285714 		Uiso   ? 		C 		0.476533
C 1.0  		0.5608233887058387 		0.3809509311533246  0.6231428571428571 		Uiso   ? 		C 		0.476533
C 1.0  		0.16074917522324678 		0.5810827076091218  0.12314285714285714 		Uiso   ? 		C 		0.472760
C 1.0  		0.16074917522324678 		0.5810827076091218  0.6231428571428571 		Uiso   ? 		C 		0.472760
C 1.0  		0.6607946072192361 		0.5810827076091218  0.12314285714285714 		Uiso   ? 		C 		0.472760
C 1.0  		0.6607946072192361 		0.5810827076091218  0.6231428571428571 		Uiso   ? 		C 		0.472760
C 1.0  		0.2607203937366441 		0.7810251446359165  0.12314285714285714 		Uiso   ? 		C 		0.473410
C 1.0  		0.2607203937366441 		0.7810251446359165  0.6231428571428571 		Uiso   ? 		C 		0.473410
C 1.0  		0.7607658257326333 		0.7810251446359165  0.12314285714285714 		Uiso   ? 		C 		0.473410
C 1.0  		0.7607658257326333 		0.7810251446359165  0.6231428571428571 		Uiso   ? 		C 		0.473410
C 1.0  		0.36069161225004137 		0.9809675816627111  0.12314285714285714 		Uiso   ? 		C 		0.468780
C 1.0  		0.36069161225004137 		0.9809675816627111  0.6231428571428571 		Uiso   ? 		C 		0.468780
C 1.0  		0.8607370442460306 		0.9809675816627111  0.12314285714285714 		Uiso   ? 		C 		0.468780
C 1.0  		0.8607370442460306 		0.9809675816627111  0.6231428571428571 		Uiso   ? 		C 		0.468780
C 1.0  		0.38738847173941454 		0.04847089382467749  0.12314285714285714 		Uiso   ? 		C 		0.521791
C 1.0  		0.38738847173941454 		0.04847089382467749  0.6231428571428571 		Uiso   ? 		C 		0.521791
C 1.0  		0.8874339037354039 		0.04847089382467749  0.12314285714285714 		Uiso   ? 		C 		0.521791
C 1.0  		0.8874339037354039 		0.04847089382467749  0.6231428571428571 		Uiso   ? 		C 		0.521791
C 1.0  		0.48735969025281184 		0.2484133308514721  0.12314285714285714 		Uiso   ? 		C 		0.520306
C 1.0  		0.48735969025281184 		0.2484133308514721  0.6231428571428571 		Uiso   ? 		C 		0.520306
C 1.0  		0.9874051222488011 		0.2484133308514721  0.12314285714285714 		Uiso   ? 		C 		0.520306
C 1.0  		0.9874051222488011 		0.2484133308514721  0.6231428571428571 		Uiso   ? 		C 		0.520306
C 1.0  		0.08728547677021997 		0.4483557678782667  0.12314285714285714 		Uiso   ? 		C 		0.522901
C 1.0  		0.08728547677021997 		0.4483557678782667  0.6231428571428571 		Uiso   ? 		C 		0.522901
C 1.0  		0.5873309087662092 		0.4483557678782667  0.12314285714285714 		Uiso   ? 		C 		0.522901
C 1.0  		0.5873309087662092 		0.4483557678782667  0.6231428571428571 		Uiso   ? 		C 		0.522901
C 1.0  		0.18744603471261992 		0.648487544334064  0.12314285714285714 		Uiso   ? 		C 		0.521569
C 1.0  		0.18744603471261992 		0.648487544334064  0.6231428571428571 		Uiso   ? 		C 		0.521569
C 1.0  		0.6874914667086092 		0.648487544334064  0.12314285714285714 		Uiso   ? 		C 		0.521569
C 1.0  		0.6874914667086092 		0.648487544334064  0.6231428571428571 		Uiso   ? 		C 		0.521569
C 1.0  		0.28741725322601724 		0.8484299813608586  0.12314285714285714 		Uiso   ? 		C 		0.524345
C 1.0  		0.28741725322601724 		0.8484299813608586  0.6231428571428571 		Uiso   ? 		C 		0.524345
C 1.0  		0.7874626852220065 		0.8484299813608586  0.12314285714285714 		Uiso   ? 		C 		0.524345
C 1.0  		0.7874626852220065 		0.8484299813608586  0.6231428571428571 		Uiso   ? 		C 		0.524345
C 1.0  		0.4665323530625208 		0.13518835230788953  0.12314285714285714 		Uiso   ? 		C 		0.517235
C 1.0  		0.4665323530625208 		0.13518835230788953  0.6231428571428571 		Uiso   ? 		C 		0.517235
C 1.0  		0.9665777850585101 		0.13518835230788953  0.12314285714285714 		Uiso   ? 		C 		0.517235
C 1.0  		0.9665777850585101 		0.13518835230788953  0.6231428571428571 		Uiso   ? 		C 		0.517235
C 1.0  		0.06645813957992888 		0.33513078933468415  0.12314285714285714 		Uiso   ? 		C 		0.523533
C 1.0  		0.06645813957992888 		0.33513078933468415  0.6231428571428571 		Uiso   ? 		C 		0.523533
C 1.0  		0.5665035715759181 		0.33513078933468415  0.12314285714285714 		Uiso   ? 		C 		0.523533
C 1.0  		0.5665035715759181 		0.33513078933468415  0.6231428571428571 		Uiso   ? 		C 		0.523533
C 1.0  		0.16642935809332618 		0.5350732263614788  0.12314285714285714 		Uiso   ? 		C 		0.522382
C 1.0  		0.16642935809332618 		0.5350732263614788  0.6231428571428571 		Uiso   ? 		C 		0.522382
C 1.0  		0.6664747900893154 		0.5350732263614788  0.12314285714285714 		Uiso   ? 		C 		0.522382
C 1.0  		0.6664747900893154 		0.5350732263614788  0.6231428571428571 		Uiso   ? 		C 		0.522382
C 1.0  		0.26640057660672345 		0.7352050028172761  0.12314285714285714 		Uiso   ? 		C 		0.520772
C 1.0  		0.26640057660672345 		0.7352050028172761  0.6231428571428571 		Uiso   ? 		C 		0.520772
C 1.0  		0.7664460086027127 		0.7352050028172761  0.12314285714285714 		Uiso   ? 		C 		0.520772
C 1.0  		0.7664460086027127 		0.7352050028172761  0.6231428571428571 		Uiso   ? 		C 		0.520772
C 1.0  		0.3663717951201208 		0.9351474398440707  0.12314285714285714 		Uiso   ? 		C 		0.521289
C 1.0  		0.3663717951201208 		0.9351474398440707  0.6231428571428571 		Uiso   ? 		C 		0.521289
C 1.0  		0.8664172271161098 		0.9351474398440707  0.12314285714285714 		Uiso   ? 		C 		0.521289
C 1.0  		0.8664172271161098 		0.9351474398440707  0.6231428571428571 		Uiso   ? 		C 		0.521289
C 1.0  		0.25996303602063353 		0.06778351558294742  0.12314285714285714 		Uiso   ? 		C 		0.497498
C 1.0  		0.25996303602063353 		0.06778351558294742  0.6231428571428571 		Uiso   ? 		C 		0.497498
C 1.0  		0.7600084680166228 		0.06778351558294742  0.12314285714285714 		Uiso   ? 		C 		0.497498
C 1.0  		0.7600084680166228 		0.06778351558294742  0.6231428571428571 		Uiso   ? 		C 		0.497498
C 1.0  		0.35993425453403083 		0.267725952609742  0.12314285714285714 		Uiso   ? 		C 		0.497802
C 1.0  		0.35993425453403083 		0.267725952609742  0.6231428571428571 		Uiso   ? 		C 		0.497802
C 1.0  		0.85997968653002 		0.267725952609742  0.12314285714285714 		Uiso   ? 		C 		0.497802
C 1.0  		0.85997968653002 		0.267725952609742  0.6231428571428571 		Uiso   ? 		C 		0.497802
C 1.0  		0.4600948124764308 		0.46785772906553935  0.12314285714285714 		Uiso   ? 		C 		0.495543
C 1.0  		0.4600948124764308 		0.46785772906553935  0.6231428571428571 		Uiso   ? 		C 		0.495543
C 1.0  		0.96014024447242 		0.46785772906553935  0.12314285714285714 		Uiso   ? 		C 		0.495543
C 1.0  		0.96014024447242 		0.46785772906553935  0.6231428571428571 		Uiso   ? 		C 		0.495543
C 1.0  		0.060020598993838874 		0.667800166092334  0.12314285714285714 		Uiso   ? 		C 		0.497241
C 1.0  		0.060020598993838874 		0.667800166092334  0.6231428571428571 		Uiso   ? 		C 		0.497241
C 1.0  		0.5600660309898281 		0.667800166092334  0.12314285714285714 		Uiso   ? 		C 		0.497241
C 1.0  		0.5600660309898281 		0.667800166092334  0.6231428571428571 		Uiso   ? 		C 		0.497241
C 1.0  		0.15999181750723618 		0.8677426031191285  0.12314285714285714 		Uiso   ? 		C 		0.499326
C 1.0  		0.15999181750723618 		0.8677426031191285  0.6231428571428571 		Uiso   ? 		C 		0.499326
C 1.0  		0.6600372495032255 		0.8677426031191285  0.12314285714285714 		Uiso   ? 		C 		0.499326
C 1.0  		0.6600372495032255 		0.8677426031191285  0.6231428571428571 		Uiso   ? 		C 		0.499326
C 1.0  		0.46634301363351816 		0.09353367792730734  0.12314285714285714 		Uiso   ? 		C 		0.483513
C 1.0  		0.46634301363351816 		0.09353367792730734  0.6231428571428571 		Uiso   ? 		C 		0.483513
C 1.0  		0.9663884456295073 		0.09353367792730734  0.12314285714285714 		Uiso   ? 		C 		0.483513
C 1.0  		0.9663884456295073 		0.09353367792730734  0.6231428571428571 		Uiso   ? 		C 		0.483513
C 1.0  		0.06626880015092623 		0.293476114954102  0.12314285714285714 		Uiso   ? 		C 		0.492524
C 1.0  		0.06626880015092623 		0.293476114954102  0.6231428571428571 		Uiso   ? 		C 		0.492524
C 1.0  		0.5663142321469155 		0.293476114954102  0.12314285714285714 		Uiso   ? 		C 		0.492524
C 1.0  		0.5663142321469155 		0.293476114954102  0.6231428571428571 		Uiso   ? 		C 		0.492524
C 1.0  		0.16624001866432353 		0.49341855198089657  0.12314285714285714 		Uiso   ? 		C 		0.491148
C 1.0  		0.16624001866432353 		0.49341855198089657  0.6231428571428571 		Uiso   ? 		C 		0.491148
C 1.0  		0.6662854506603128 		0.49341855198089657  0.12314285714285714 		Uiso   ? 		C 		0.491148
C 1.0  		0.6662854506603128 		0.49341855198089657  0.6231428571428571 		Uiso   ? 		C 		0.491148
C 1.0  		0.26640057660672345 		0.6933609890076912  0.12314285714285714 		Uiso   ? 		C 		0.487823
C 1.0  		0.26640057660672345 		0.6933609890076912  0.6231428571428571 		Uiso   ? 		C 		0.487823
C 1.0  		0.7664460086027127 		0.6933609890076912  0.12314285714285714 		Uiso   ? 		C 		0.487823
C 1.0  		0.7664460086027127 		0.6933609890076912  0.6231428571428571 		Uiso   ? 		C 		0.487823
C 1.0  		0.3663717951201208 		0.8934927654634885  0.12314285714285714 		Uiso   ? 		C 		0.489545
C 1.0  		0.3663717951201208 		0.8934927654634885  0.6231428571428571 		Uiso   ? 		C 		0.489545
C 1.0  		0.8664172271161099 		0.8934927654634885  0.12314285714285714 		Uiso   ? 		C 		0.489545
C 1.0  		0.8664172271161099 		0.8934927654634885  0.6231428571428571 		Uiso   ? 		C 		0.489545
C 1.0  		0.3500886042258932 		0.02272073148031757  0.12314285714285714 		Uiso   ? 		C 		0.496843
C 1.0  		0.3500886042258932 		0.02272073148031757  0.6231428571428571 		Uiso   ? 		C 		0.496843
C 1.0  		0.8501340362218824 		0.02272073148031757  0.12314285714285714 		Uiso   ? 		C 		0.496843
C 1.0  		0.8501340362218824 		0.02272073148031757  0.6231428571428571 		Uiso   ? 		C 		0.496843
C 1.0  		0.4500598227392905 		0.22266316850711218  0.12314285714285714 		Uiso   ? 		C 		0.496361
C 1.0  		0.4500598227392905 		0.22266316850711218  0.6231428571428571 		Uiso   ? 		C 		0.496361
C 1.0  		0.9501052547352797 		0.22266316850711218  0.12314285714285714 		Uiso   ? 		C 		0.496361
C 1.0  		0.9501052547352797 		0.22266316850711218  0.6231428571428571 		Uiso   ? 		C 		0.496361
C 1.0  		0.05017494868570128 		0.42260560553390686  0.12314285714285714 		Uiso   ? 		C 		0.496864
C 1.0  		0.05017494868570128 		0.42260560553390686  0.6231428571428571 		Uiso   ? 		C 		0.496864
C 1.0  		0.5502203806816905 		0.42260560553390686  0.12314285714285714 		Uiso   ? 		C 		0.496864
C 1.0  		0.5502203806816905 		0.42260560553390686  0.6231428571428571 		Uiso   ? 		C 		0.496864
C 1.0  		0.1501461671990986 		0.6227373819897041  0.12314285714285714 		Uiso   ? 		C 		0.496151
C 1.0  		0.1501461671990986 		0.6227373819897041  0.6231428571428571 		Uiso   ? 		C 		0.496151
C 1.0  		0.6501915991950878 		0.6227373819897041  0.12314285714285714 		Uiso   ? 		C 		0.496151
C 1.0  		0.6501915991950878 		0.6227373819897041  0.6231428571428571 		Uiso   ? 		C 		0.496151
C 1.0  		0.25011738571249587 		0.8226798190164987  0.12314285714285714 		Uiso   ? 		C 		0.498582
C 1.0  		0.25011738571249587 		0.8226798190164987  0.6231428571428571 		Uiso   ? 		C 		0.498582
C 1.0  		0.7501628177084851 		0.8226798190164987  0.12314285714285714 		Uiso   ? 		C 		0.498582
C 1.0  		0.7501628177084851 		0.8226798190164987  0.6231428571428571 		Uiso   ? 		C 		0.498582
C 1.0  		0.2203910953590804 		0.05131098525971718  0.12314285714285714 		Uiso   ? 		C 		0.474044
C 1.0  		0.2203910953590804 		0.05131098525971718  0.6231428571428571 		Uiso   ? 		C 		0.474044
C 1.0  		0.7204365273550697 		0.05131098525971718  0.12314285714285714 		Uiso   ? 		C 		0.474044
C 1.0  		0.7204365273550697 		0.05131098525971718  0.6231428571428571 		Uiso   ? 		C 		0.474044
C 1.0  		0.3203623138724777 		0.2512534222865118  0.12314285714285714 		Uiso   ? 		C 		0.471202
C 1.0  		0.3203623138724777 		0.2512534222865118  0.6231428571428571 		Uiso   ? 		C 		0.471202
C 1.0  		0.820407745868467 		0.2512534222865118  0.12314285714285714 		Uiso   ? 		C 		0.471202
C 1.0  		0.820407745868467 		0.2512534222865118  0.6231428571428571 		Uiso   ? 		C 		0.471202
C 1.0  		0.4203335323858751 		0.4511958593133064  0.12314285714285714 		Uiso   ? 		C 		0.471757
C 1.0  		0.4203335323858751 		0.4511958593133064  0.6231428571428571 		Uiso   ? 		C 		0.471757
C 1.0  		0.9203789643818642 		0.4511958593133064  0.12314285714285714 		Uiso   ? 		C 		0.471757
C 1.0  		0.9203789643818642 		0.4511958593133064  0.6231428571428571 		Uiso   ? 		C 		0.471757
C 1.0  		0.020259318903283127 		0.6513276357691037  0.12314285714285714 		Uiso   ? 		C 		0.476206
C 1.0  		0.020259318903283127 		0.6513276357691037  0.6231428571428571 		Uiso   ? 		C 		0.476206
C 1.0  		0.5203047508992724 		0.6513276357691037  0.12314285714285714 		Uiso   ? 		C 		0.476206
C 1.0  		0.5203047508992724 		0.6513276357691037  0.6231428571428571 		Uiso   ? 		C 		0.476206
C 1.0  		0.12041987684568307 		0.8512700727958984  0.12314285714285714 		Uiso   ? 		C 		0.473466
C 1.0  		0.12041987684568307 		0.8512700727958984  0.6231428571428571 		Uiso   ? 		C 		0.473466
C 1.0  		0.6204653088416724 		0.8512700727958984  0.12314285714285714 		Uiso   ? 		C 		0.473466
C 1.0  		0.6204653088416724 		0.8512700727958984  0.6231428571428571 		Uiso   ? 		C 		0.473466
C 1.0  		0.1374604254559213 		0.04847089382467749  0.12314285714285714 		Uiso   ? 		C 		0.523286
C 1.0  		0.1374604254559213 		0.04847089382467749  0.6231428571428571 		Uiso   ? 		C 		0.523286
C 1.0  		0.6375058574519105 		0.04847089382467749  0.12314285714285714 		Uiso   ? 		C 		0.523286
C 1.0  		0.6375058574519105 		0.04847089382467749  0.6231428571428571 		Uiso   ? 		C 		0.523286
C 1.0  		0.2374316439693186 		0.2484133308514721  0.12314285714285714 		Uiso   ? 		C 		0.515902
C 1.0  		0.2374316439693186 		0.2484133308514721  0.6231428571428571 		Uiso   ? 		C 		0.515902
C 1.0  		0.7374770759653079 		0.2484133308514721  0.12314285714285714 		Uiso   ? 		C 		0.515902
C 1.0  		0.7374770759653079 		0.2484133308514721  0.6231428571428571 		Uiso   ? 		C 		0.515902
C 1.0  		0.33740286248271595 		0.44854510730726943  0.12314285714285714 		Uiso   ? 		C 		0.518938
C 1.0  		0.33740286248271595 		0.44854510730726943  0.6231428571428571 		Uiso   ? 		C 		0.518938
C 1.0  		0.8374482944787052 		0.44854510730726943  0.12314285714285714 		Uiso   ? 		C 		0.518938
C 1.0  		0.8374482944787052 		0.44854510730726943  0.6231428571428571 		Uiso   ? 		C 		0.518938
C 1.0  		0.4373740809961132 		0.648487544334064  0.12314285714285714 		Uiso   ? 		C 		0.519919
C 1.0  		0.4373740809961132 		0.648487544334064  0.6231428571428571 		Uiso   ? 		C 		0.519919
C 1.0  		0.9374195129921024 		0.648487544334064  0.12314285714285714 		Uiso   ? 		C 		0.519919
C 1.0  		0.9374195129921024 		0.648487544334064  0.6231428571428571 		Uiso   ? 		C 		0.519919
C 1.0  		0.037489206942523945 		0.8484299813608586  0.12314285714285714 		Uiso   ? 		C 		0.524350
C 1.0  		0.037489206942523945 		0.8484299813608586  0.6231428571428571 		Uiso   ? 		C 		0.524350
C 1.0  		0.5375346389385132 		0.8484299813608586  0.12314285714285714 		Uiso   ? 		C 		0.524350
C 1.0  		0.5375346389385132 		0.8484299813608586  0.6231428571428571 		Uiso   ? 		C 		0.524350
C 1.0  		0.04771353610866689 		0.08785349505722795  0.12314285714285714 		Uiso   ? 		C 		0.551631
C 1.0  		0.04771353610866689 		0.08785349505722795  0.6231428571428571 		Uiso   ? 		C 		0.551631
C 1.0  		0.5477589681046561 		0.08785349505722795  0.12314285714285714 		Uiso   ? 		C 		0.551631
C 1.0  		0.5477589681046561 		0.08785349505722795  0.6231428571428571 		Uiso   ? 		C 		0.551631
C 1.0  		0.008141595447113788 		0.11303563911457991  0.12314285714285714 		Uiso   ? 		C 		0.523185
C 1.0  		0.008141595447113788 		0.11303563911457991  0.6231428571428571 		Uiso   ? 		C 		0.523185
C 1.0  		0.5081870274431031 		0.11303563911457991  0.12314285714285714 		Uiso   ? 		C 		0.523185
C 1.0  		0.5081870274431031 		0.11303563911457991  0.6231428571428571 		Uiso   ? 		C 		0.523185
C 1.0  		0.14768475462206418 		0.28779593208402254  0.12314285714285714 		Uiso   ? 		C 		0.557809
C 1.0  		0.14768475462206418 		0.28779593208402254  0.6231428571428571 		Uiso   ? 		C 		0.557809
C 1.0  		0.6477301866180534 		0.28779593208402254  0.12314285714285714 		Uiso   ? 		C 		0.557809
C 1.0  		0.6477301866180534 		0.28779593208402254  0.6231428571428571 		Uiso   ? 		C 		0.557809
C 1.0  		0.10830215338951373 		0.3129780761413745  0.12314285714285714 		Uiso   ? 		C 		0.523765
C 1.0  		0.10830215338951373 		0.3129780761413745  0.6231428571428571 		Uiso   ? 		C 		0.523765
C 1.0  		0.6083475853855029 		0.3129780761413745  0.12314285714285714 		Uiso   ? 		C 		0.523765
C 1.0  		0.6083475853855029 		0.3129780761413745  0.6231428571428571 		Uiso   ? 		C 		0.523765
C 1.0  		0.24784531256446413 		0.4879277085398198  0.12314285714285714 		Uiso   ? 		C 		0.553952
C 1.0  		0.24784531256446413 		0.4879277085398198  0.6231428571428571 		Uiso   ? 		C 		0.553952
C 1.0  		0.7478907445604533 		0.4879277085398198  0.12314285714285714 		Uiso   ? 		C 		0.553952
C 1.0  		0.7478907445604533 		0.4879277085398198  0.6231428571428571 		Uiso   ? 		C 		0.553952
C 1.0  		0.20827337190291106 		0.5129205131681692  0.12314285714285714 		Uiso   ? 		C 		0.517402
C 1.0  		0.20827337190291106 		0.5129205131681692  0.6231428571428571 		Uiso   ? 		C 		0.517402
C 1.0  		0.7083188038989003 		0.5129205131681692  0.12314285714285714 		Uiso   ? 		C 		0.517402
C 1.0  		0.7083188038989003 		0.5129205131681692  0.6231428571428571 		Uiso   ? 		C 		0.517402
C 1.0  		0.3478165310778614 		0.6878701455666144  0.12314285714285714 		Uiso   ? 		C 		0.552310
C 1.0  		0.3478165310778614 		0.6878701455666144  0.6231428571428571 		Uiso   ? 		C 		0.552310
C 1.0  		0.8478619630738506 		0.6878701455666144  0.12314285714285714 		Uiso   ? 		C 		0.552310
C 1.0  		0.8478619630738506 		0.6878701455666144  0.6231428571428571 		Uiso   ? 		C 		0.552310
C 1.0  		0.3082445904163083 		0.7128629501949638  0.12314285714285714 		Uiso   ? 		C 		0.518117
C 1.0  		0.3082445904163083 		0.7128629501949638  0.6231428571428571 		Uiso   ? 		C 		0.518117
C 1.0  		0.8082900224122976 		0.7128629501949638  0.12314285714285714 		Uiso   ? 		C 		0.518117
C 1.0  		0.8082900224122976 		0.7128629501949638  0.6231428571428571 		Uiso   ? 		C 		0.518117
C 1.0  		0.4477877495912588 		0.8878125825934091  0.12314285714285714 		Uiso   ? 		C 		0.553485
C 1.0  		0.4477877495912588 		0.8878125825934091  0.6231428571428571 		Uiso   ? 		C 		0.553485
C 1.0  		0.947833181587248 		0.8878125825934091  0.12314285714285714 		Uiso   ? 		C 		0.553485
C 1.0  		0.947833181587248 		0.8878125825934091  0.6231428571428571 		Uiso   ? 		C 		0.553485
C 1.0  		0.40821580892970566 		0.9129947266507611  0.12314285714285714 		Uiso   ? 		C 		0.521843
C 1.0  		0.40821580892970566 		0.9129947266507611  0.6231428571428571 		Uiso   ? 		C 		0.521843
C 1.0  		0.9082612409256947 		0.9129947266507611  0.12314285714285714 		Uiso   ? 		C 		0.521843
C 1.0  		0.9082612409256947 		0.9129947266507611  0.6231428571428571 		Uiso   ? 		C 		0.521843
C 1.0  		0.09353367792730734 		0.06494342414790773  0.12314285714285714 		Uiso   ? 		C 		0.555185
C 1.0  		0.09353367792730734 		0.06494342414790773  0.6231428571428571 		Uiso   ? 		C 		0.555185
C 1.0  		0.5935791099232965 		0.06494342414790773  0.12314285714285714 		Uiso   ? 		C 		0.555185
C 1.0  		0.5935791099232965 		0.06494342414790773  0.6231428571428571 		Uiso   ? 		C 		0.555185
C 1.0  		0.19369423586970724 		0.265075200603705  0.12314285714285714 		Uiso   ? 		C 		0.551311
C 1.0  		0.19369423586970724 		0.265075200603705  0.6231428571428571 		Uiso   ? 		C 		0.551311
C 1.0  		0.6937396678656965 		0.265075200603705  0.12314285714285714 		Uiso   ? 		C 		0.551311
C 1.0  		0.6937396678656965 		0.265075200603705  0.6231428571428571 		Uiso   ? 		C 		0.551311
C 1.0  		0.29366545438310454 		0.4650176376304996  0.12314285714285714 		Uiso   ? 		C 		0.552361
C 1.0  		0.29366545438310454 		0.4650176376304996  0.6231428571428571 		Uiso   ? 		C 		0.552361
C 1.0  		0.7937108863790938 		0.4650176376304996  0.12314285714285714 		Uiso   ? 		C 		0.552361
C 1.0  		0.7937108863790938 		0.4650176376304996  0.6231428571428571 		Uiso   ? 		C 		0.552361
C 1.0  		0.3936366728965019 		0.6649600746572942  0.12314285714285714 		Uiso   ? 		C 		0.555469
C 1.0  		0.3936366728965019 		0.6649600746572942  0.6231428571428571 		Uiso   ? 		C 		0.555469
C 1.0  		0.8936821048924911 		0.6649600746572942  0.12314285714285714 		Uiso   ? 		C 		0.555469
C 1.0  		0.8936821048924911 		0.6649600746572942  0.6231428571428571 		Uiso   ? 		C 		0.555469
C 1.0  		0.4936078914098992 		0.8650918511130915  0.12314285714285714 		Uiso   ? 		C 		0.553282
C 1.0  		0.4936078914098992 		0.8650918511130915  0.6231428571428571 		Uiso   ? 		C 		0.553282
C 1.0  		0.9936533234058884 		0.8650918511130915  0.12314285714285714 		Uiso   ? 		C 		0.553282
C 1.0  		0.9936533234058884 		0.8650918511130915  0.6231428571428571 		Uiso   ? 		C 		0.553282
C 1.0  		0.10016055794239996 		0.02272073148031757  0.12314285714285714 		Uiso   ? 		C 		0.497975
C 1.0  		0.10016055794239996 		0.02272073148031757  0.6231428571428571 		Uiso   ? 		C 		0.497975
C 1.0  		0.6002059899383891 		0.02272073148031757  0.12314285714285714 		Uiso   ? 		C 		0.497975
C 1.0  		0.6002059899383891 		0.02272073148031757  0.6231428571428571 		Uiso   ? 		C 		0.497975
C 1.0  		0.20013177645579724 		0.22285250793611486  0.12314285714285714 		Uiso   ? 		C 		0.497725
C 1.0  		0.20013177645579724 		0.22285250793611486  0.6231428571428571 		Uiso   ? 		C 		0.497725
C 1.0  		0.7001772084517864 		0.22285250793611486  0.12314285714285714 		Uiso   ? 		C 		0.497725
C 1.0  		0.7001772084517864 		0.22285250793611486  0.6231428571428571 		Uiso   ? 		C 		0.497725
C 1.0  		0.30029233439819725 		0.4227949449629095  0.12314285714285714 		Uiso   ? 		C 		0.491880
C 1.0  		0.30029233439819725 		0.4227949449629095  0.6231428571428571 		Uiso   ? 		C 		0.491880
C 1.0  		0.8003377663941865 		0.4227949449629095  0.12314285714285714 		Uiso   ? 		C 		0.491880
C 1.0  		0.8003377663941865 		0.4227949449629095  0.6231428571428571 		Uiso   ? 		C 		0.491880
C 1.0  		0.40026355291159443 		0.6227373819897041  0.12314285714285714 		Uiso   ? 		C 		0.500714
C 1.0  		0.40026355291159443 		0.6227373819897041  0.6231428571428571 		Uiso   ? 		C 		0.500714
C 1.0  		0.9003089849075837 		0.6227373819897041  0.12314285714285714 		Uiso   ? 		C 		0.500714
C 1.0  		0.9003089849075837 		0.6227373819897041  0.6231428571428571 		Uiso   ? 		C 		0.500714
C 1.0  		0.00018933942900259607 		0.8226798190164987  0.12314285714285714 		Uiso   ? 		C 		0.498528
C 1.0  		0.00018933942900259607 		0.8226798190164987  0.6231428571428571 		Uiso   ? 		C 		0.498528
C 1.0  		0.5002347714249918 		0.8226798190164987  0.12314285714285714 		Uiso   ? 		C 		0.498528
C 1.0  		0.5002347714249918 		0.8226798190164987  0.6231428571428571 		Uiso   ? 		C 		0.498528
C 1.0  		0.21641496735002486 		0.09353367792730734  0.12314285714285714 		Uiso   ? 		C 		0.488180
C 1.0  		0.21641496735002486 		0.09353367792730734  0.6231428571428571 		Uiso   ? 		C 		0.488180
C 1.0  		0.716460399346014 		0.09353367792730734  0.12314285714285714 		Uiso   ? 		C 		0.488180
C 1.0  		0.716460399346014 		0.09353367792730734  0.6231428571428571 		Uiso   ? 		C 		0.488180
C 1.0  		0.31638618586342215 		0.2936654543831046  0.12314285714285714 		Uiso   ? 		C 		0.483353
C 1.0  		0.31638618586342215 		0.2936654543831046  0.6231428571428571 		Uiso   ? 		C 		0.483353
C 1.0  		0.8164316178594114 		0.2936654543831046  0.12314285714285714 		Uiso   ? 		C 		0.483353
C 1.0  		0.8164316178594114 		0.2936654543831046  0.6231428571428571 		Uiso   ? 		C 		0.483353
C 1.0  		0.4163574043768194 		0.49360789140989925  0.12314285714285714 		Uiso   ? 		C 		0.487076
C 1.0  		0.4163574043768194 		0.49360789140989925  0.6231428571428571 		Uiso   ? 		C 		0.487076
C 1.0  		0.9164028363728086 		0.49360789140989925  0.12314285714285714 		Uiso   ? 		C 		0.487076
C 1.0  		0.9164028363728086 		0.49360789140989925  0.6231428571428571 		Uiso   ? 		C 		0.487076
C 1.0  		0.01628319089422755 		0.6935503284366938  0.12314285714285714 		Uiso   ? 		C 		0.491009
C 1.0  		0.01628319089422755 		0.6935503284366938  0.6231428571428571 		Uiso   ? 		C 		0.491009
C 1.0  		0.5163286228902167 		0.6935503284366938  0.12314285714285714 		Uiso   ? 		C 		0.491009
C 1.0  		0.5163286228902167 		0.6935503284366938  0.6231428571428571 		Uiso   ? 		C 		0.491009
C 1.0  		0.11644374883662749 		0.8934927654634885  0.12314285714285714 		Uiso   ? 		C 		0.488209
C 1.0  		0.11644374883662749 		0.8934927654634885  0.6231428571428571 		Uiso   ? 		C 		0.488209
C 1.0  		0.6164891808326167 		0.8934927654634885  0.12314285714285714 		Uiso   ? 		C 		0.488209
C 1.0  		0.6164891808326167 		0.8934927654634885  0.6231428571428571 		Uiso   ? 		C 		0.488209
C 1.0  		0.21073478447994545 		0.18100849412652997  0.12314285714285714 		Uiso   ? 		C 		0.472327
C 1.0  		0.21073478447994545 		0.18100849412652997  0.6231428571428571 		Uiso   ? 		C 		0.472327
C 1.0  		0.7107802164759347 		0.18100849412652997  0.12314285714285714 		Uiso   ? 		C 		0.472327
C 1.0  		0.7107802164759347 		0.18100849412652997  0.6231428571428571 		Uiso   ? 		C 		0.472327
C 1.0  		0.3107060029933428 		0.38114027058232725  0.12314285714285714 		Uiso   ? 		C 		0.468356
C 1.0  		0.3107060029933428 		0.38114027058232725  0.6231428571428571 		Uiso   ? 		C 		0.468356
C 1.0  		0.810751434989332 		0.38114027058232725  0.12314285714285714 		Uiso   ? 		C 		0.468356
C 1.0  		0.810751434989332 		0.38114027058232725  0.6231428571428571 		Uiso   ? 		C 		0.468356
C 1.0  		0.41067722150674 		0.5810827076091218  0.12314285714285714 		Uiso   ? 		C 		0.475753
C 1.0  		0.41067722150674 		0.5810827076091218  0.6231428571428571 		Uiso   ? 		C 		0.475753
C 1.0  		0.9107226535027292 		0.5810827076091218  0.12314285714285714 		Uiso   ? 		C 		0.475753
C 1.0  		0.9107226535027292 		0.5810827076091218  0.6231428571428571 		Uiso   ? 		C 		0.475753
C 1.0  		0.010792347453150797 		0.7810251446359165  0.12314285714285714 		Uiso   ? 		C 		0.473835
C 1.0  		0.010792347453150797 		0.7810251446359165  0.6231428571428571 		Uiso   ? 		C 		0.473835
C 1.0  		0.51083777944914 		0.7810251446359165  0.12314285714285714 		Uiso   ? 		C 		0.473835
C 1.0  		0.51083777944914 		0.7810251446359165  0.6231428571428571 		Uiso   ? 		C 		0.473835
C 1.0  		0.1107635659665481 		0.9809675816627111  0.12314285714285714 		Uiso   ? 		C 		0.471335
C 1.0  		0.1107635659665481 		0.9809675816627111  0.6231428571428571 		Uiso   ? 		C 		0.471335
C 1.0  		0.6108089979625373 		0.9809675816627111  0.12314285714285714 		Uiso   ? 		C 		0.471335
C 1.0  		0.6108089979625373 		0.9809675816627111  0.6231428571428571 		Uiso   ? 		C 		0.471335
C 1.0  		0.21660430677902748 		0.13518835230788953  0.12314285714285714 		Uiso   ? 		C 		0.516849
C 1.0  		0.21660430677902748 		0.13518835230788953  0.6231428571428571 		Uiso   ? 		C 		0.516849
C 1.0  		0.7166497387750167 		0.13518835230788953  0.12314285714285714 		Uiso   ? 		C 		0.516849
C 1.0  		0.7166497387750167 		0.13518835230788953  0.6231428571428571 		Uiso   ? 		C 		0.516849
C 1.0  		0.31657552529242483 		0.3353201287636868  0.12314285714285714 		Uiso   ? 		C 		0.513029
C 1.0  		0.31657552529242483 		0.3353201287636868  0.6231428571428571 		Uiso   ? 		C 		0.513029
C 1.0  		0.816620957288414 		0.3353201287636868  0.12314285714285714 		Uiso   ? 		C 		0.513029
C 1.0  		0.816620957288414 		0.3353201287636868  0.6231428571428571 		Uiso   ? 		C 		0.513029
C 1.0  		0.41654674380582213 		0.5352625657904815  0.12314285714285714 		Uiso   ? 		C 		0.520057
C 1.0  		0.41654674380582213 		0.5352625657904815  0.6231428571428571 		Uiso   ? 		C 		0.520057
C 1.0  		0.9165921758018114 		0.5352625657904815  0.12314285714285714 		Uiso   ? 		C 		0.520057
C 1.0  		0.9165921758018114 		0.5352625657904815  0.6231428571428571 		Uiso   ? 		C 		0.520057
C 1.0  		0.01647253032323019 		0.7352050028172761  0.12314285714285714 		Uiso   ? 		C 		0.517617
C 1.0  		0.01647253032323019 		0.7352050028172761  0.6231428571428571 		Uiso   ? 		C 		0.517617
C 1.0  		0.5165179623192194 		0.7352050028172761  0.12314285714285714 		Uiso   ? 		C 		0.517617
C 1.0  		0.5165179623192194 		0.7352050028172761  0.6231428571428571 		Uiso   ? 		C 		0.517617
C 1.0  		0.11663308826563014 		0.9353367792730733  0.12314285714285714 		Uiso   ? 		C 		0.515855
C 1.0  		0.11663308826563014 		0.9353367792730733  0.6231428571428571 		Uiso   ? 		C 		0.515855
C 1.0  		0.6166785202616193 		0.9353367792730733  0.12314285714285714 		Uiso   ? 		C 		0.515855
C 1.0  		0.6166785202616193 		0.9353367792730733  0.6231428571428571 		Uiso   ? 		C 		0.515855
C 1.0  		0.29783092182116283 		0.08785349505722795  0.22314285714285714 		Uiso   ? 		C 		0.552383
C 1.0  		0.29783092182116283 		0.08785349505722795  0.7231428571428572 		Uiso   ? 		C 		0.552383
C 1.0  		0.797876353817152 		0.08785349505722795  0.22314285714285714 		Uiso   ? 		C 		0.552383
C 1.0  		0.797876353817152 		0.08785349505722795  0.7231428571428572 		Uiso   ? 		C 		0.552383
C 1.0  		0.39780214033456013 		0.28779593208402254  0.22314285714285714 		Uiso   ? 		C 		0.550194
C 1.0  		0.39780214033456013 		0.28779593208402254  0.7231428571428572 		Uiso   ? 		C 		0.550194
C 1.0  		0.8978475723305493 		0.28779593208402254  0.22314285714285714 		Uiso   ? 		C 		0.550194
C 1.0  		0.8978475723305493 		0.28779593208402254  0.7231428571428572 		Uiso   ? 		C 		0.550194
C 1.0  		0.49777335884795737 		0.4879277085398198  0.22314285714285714 		Uiso   ? 		C 		0.550649
C 1.0  		0.49777335884795737 		0.4879277085398198  0.7231428571428572 		Uiso   ? 		C 		0.550649
C 1.0  		0.9978187908439465 		0.4879277085398198  0.22314285714285714 		Uiso   ? 		C 		0.550649
C 1.0  		0.9978187908439465 		0.4879277085398198  0.7231428571428572 		Uiso   ? 		C 		0.550649
C 1.0  		0.09788848479436817 		0.6878701455666144  0.22314285714285714 		Uiso   ? 		C 		0.550710
C 1.0  		0.09788848479436817 		0.6878701455666144  0.7231428571428572 		Uiso   ? 		C 		0.550710
C 1.0  		0.5979339167903573 		0.6878701455666144  0.22314285714285714 		Uiso   ? 		C 		0.550710
C 1.0  		0.5979339167903573 		0.6878701455666144  0.7231428571428572 		Uiso   ? 		C 		0.550710
C 1.0  		0.19785970330776545 		0.8878125825934091  0.22314285714285714 		Uiso   ? 		C 		0.555317
C 1.0  		0.19785970330776545 		0.8878125825934091  0.7231428571428572 		Uiso   ? 		C 		0.555317
C 1.0  		0.6979051353037548 		0.8878125825934091  0.22314285714285714 		Uiso   ? 		C 		0.555317
C 1.0  		0.6979051353037548 		0.8878125825934091  0.7231428571428572 		Uiso   ? 		C 		0.555317
C 1.0  		0.4703191416425737 		0.05112164583071454  0.22314285714285714 		Uiso   ? 		C 		0.472346
C 1.0  		0.4703191416425737 		0.05112164583071454  0.7231428571428572 		Uiso   ? 		C 		0.472346
C 1.0  		0.9703645736385629 		0.05112164583071454  0.22314285714285714 		Uiso   ? 		C 		0.472346
C 1.0  		0.9703645736385629 		0.05112164583071454  0.7231428571428572 		Uiso   ? 		C 		0.472346
C 1.0  		0.0702449281599818 		0.2512534222865118  0.22314285714285714 		Uiso   ? 		C 		0.476695
C 1.0  		0.0702449281599818 		0.2512534222865118  0.7231428571428572 		Uiso   ? 		C 		0.476695
C 1.0  		0.570290360155971 		0.2512534222865118  0.22314285714285714 		Uiso   ? 		C 		0.476695
C 1.0  		0.570290360155971 		0.2512534222865118  0.7231428571428572 		Uiso   ? 		C 		0.476695
C 1.0  		0.17021614667337912 		0.4511958593133064  0.22314285714285714 		Uiso   ? 		C 		0.470851
C 1.0  		0.17021614667337912 		0.4511958593133064  0.7231428571428572 		Uiso   ? 		C 		0.470851
C 1.0  		0.6702615786693683 		0.4511958593133064  0.22314285714285714 		Uiso   ? 		C 		0.470851
C 1.0  		0.6702615786693683 		0.4511958593133064  0.7231428571428572 		Uiso   ? 		C 		0.470851
C 1.0  		0.270376704615779 		0.651138296340101  0.22314285714285714 		Uiso   ? 		C 		0.470995
C 1.0  		0.270376704615779 		0.651138296340101  0.7231428571428572 		Uiso   ? 		C 		0.470995
C 1.0  		0.7704221366117683 		0.651138296340101  0.22314285714285714 		Uiso   ? 		C 		0.470995
C 1.0  		0.7704221366117683 		0.651138296340101  0.7231428571428572 		Uiso   ? 		C 		0.470995
C 1.0  		0.37034792312917636 		0.8510807333668957  0.22314285714285714 		Uiso   ? 		C 		0.473373
C 1.0  		0.37034792312917636 		0.8510807333668957  0.7231428571428572 		Uiso   ? 		C 		0.473373
C 1.0  		0.8703933551251657 		0.8510807333668957  0.22314285714285714 		Uiso   ? 		C 		0.473373
C 1.0  		0.8703933551251657 		0.8510807333668957  0.7231428571428572 		Uiso   ? 		C 		0.473373
C 1.0  		0.4301791826940126 		0.028211574921394315  0.22314285714285714 		Uiso   ? 		C 		0.517079
C 1.0  		0.4301791826940126 		0.028211574921394315  0.7231428571428572 		Uiso   ? 		C 		0.517079
C 1.0  		0.930224614690002 		0.028211574921394315  0.22314285714285714 		Uiso   ? 		C 		0.517079
C 1.0  		0.930224614690002 		0.028211574921394315  0.7231428571428572 		Uiso   ? 		C 		0.517079
C 1.0  		0.03010496921142077 		0.22834335137719158  0.22314285714285714 		Uiso   ? 		C 		0.516345
C 1.0  		0.03010496921142077 		0.22834335137719158  0.7231428571428572 		Uiso   ? 		C 		0.516345
C 1.0  		0.53015040120741 		0.22834335137719158  0.22314285714285714 		Uiso   ? 		C 		0.516345
C 1.0  		0.53015040120741 		0.22834335137719158  0.7231428571428572 		Uiso   ? 		C 		0.516345
C 1.0  		0.1302655271538207 		0.42828578840398623  0.22314285714285714 		Uiso   ? 		C 		0.516858
C 1.0  		0.1302655271538207 		0.42828578840398623  0.7231428571428572 		Uiso   ? 		C 		0.516858
C 1.0  		0.63031095914981 		0.42828578840398623  0.22314285714285714 		Uiso   ? 		C 		0.516858
C 1.0  		0.63031095914981 		0.42828578840398623  0.7231428571428572 		Uiso   ? 		C 		0.516858
C 1.0  		0.23023674566721802 		0.6282282254307808  0.22314285714285714 		Uiso   ? 		C 		0.518902
C 1.0  		0.23023674566721802 		0.6282282254307808  0.7231428571428572 		Uiso   ? 		C 		0.518902
C 1.0  		0.7302821776632072 		0.6282282254307808  0.22314285714285714 		Uiso   ? 		C 		0.518902
C 1.0  		0.7302821776632072 		0.6282282254307808  0.7231428571428572 		Uiso   ? 		C 		0.518902
C 1.0  		0.3302079641806153 		0.8283600018865781  0.22314285714285714 		Uiso   ? 		C 		0.520749
C 1.0  		0.3302079641806153 		0.8283600018865781  0.7231428571428572 		Uiso   ? 		C 		0.520749
C 1.0  		0.8302533961766045 		0.8283600018865781  0.22314285714285714 		Uiso   ? 		C 		0.520749
C 1.0  		0.8302533961766045 		0.8283600018865781  0.7231428571428572 		Uiso   ? 		C 		0.520749
C 1.0  		0.010034989737140256 		0.06778351558294742  0.22314285714285714 		Uiso   ? 		C 		0.492195
C 1.0  		0.010034989737140256 		0.06778351558294742  0.7231428571428572 		Uiso   ? 		C 		0.492195
C 1.0  		0.5100804217331295 		0.06778351558294742  0.22314285714285714 		Uiso   ? 		C 		0.492195
C 1.0  		0.5100804217331295 		0.06778351558294742  0.7231428571428572 		Uiso   ? 		C 		0.492195
C 1.0  		0.11000620825053754 		0.267725952609742  0.22314285714285714 		Uiso   ? 		C 		0.495031
C 1.0  		0.11000620825053754 		0.267725952609742  0.7231428571428572 		Uiso   ? 		C 		0.495031
C 1.0  		0.6100516402465268 		0.267725952609742  0.22314285714285714 		Uiso   ? 		C 		0.495031
C 1.0  		0.6100516402465268 		0.267725952609742  0.7231428571428572 		Uiso   ? 		C 		0.495031
C 1.0  		0.20997742676393485 		0.4676683896365367  0.22314285714285714 		Uiso   ? 		C 		0.494226
C 1.0  		0.20997742676393485 		0.4676683896365367  0.7231428571428572 		Uiso   ? 		C 		0.494226
C 1.0  		0.7100228587599241 		0.4676683896365367  0.22314285714285714 		Uiso   ? 		C 		0.494226
C 1.0  		0.7100228587599241 		0.4676683896365367  0.7231428571428572 		Uiso   ? 		C 		0.494226
C 1.0  		0.3099486452773321 		0.667800166092334  0.22314285714285714 		Uiso   ? 		C 		0.493251
C 1.0  		0.3099486452773321 		0.667800166092334  0.7231428571428572 		Uiso   ? 		C 		0.493251
C 1.0  		0.8099940772733213 		0.667800166092334  0.22314285714285714 		Uiso   ? 		C 		0.493251
C 1.0  		0.8099940772733213 		0.667800166092334  0.7231428571428572 		Uiso   ? 		C 		0.493251
C 1.0  		0.4099198637907295 		0.8677426031191285  0.22314285714285714 		Uiso   ? 		C 		0.495274
C 1.0  		0.4099198637907295 		0.8677426031191285  0.7231428571428572 		Uiso   ? 		C 		0.495274
C 1.0  		0.9099652957867187 		0.8677426031191285  0.22314285714285714 		Uiso   ? 		C 		0.495274
C 1.0  		0.9099652957867187 		0.8677426031191285  0.7231428571428572 		Uiso   ? 		C 		0.495274
C 1.0  		0.18025113641051937 		0.02840091435039696  0.22314285714285714 		Uiso   ? 		C 		0.522505
C 1.0  		0.18025113641051937 		0.02840091435039696  0.7231428571428572 		Uiso   ? 		C 		0.522505
C 1.0  		0.6802965684065085 		0.02840091435039696  0.22314285714285714 		Uiso   ? 		C 		0.522505
C 1.0  		0.6802965684065085 		0.02840091435039696  0.7231428571428572 		Uiso   ? 		C 		0.522505
C 1.0  		0.2802223549239167 		0.22834335137719158  0.22314285714285714 		Uiso   ? 		C 		0.517058
C 1.0  		0.2802223549239167 		0.22834335137719158  0.7231428571428572 		Uiso   ? 		C 		0.517058
C 1.0  		0.780267786919906 		0.22834335137719158  0.22314285714285714 		Uiso   ? 		C 		0.517058
C 1.0  		0.780267786919906 		0.22834335137719158  0.7231428571428572 		Uiso   ? 		C 		0.517058
C 1.0  		0.380193573437314 		0.42828578840398623  0.22314285714285714 		Uiso   ? 		C 		0.518688
C 1.0  		0.380193573437314 		0.42828578840398623  0.7231428571428572 		Uiso   ? 		C 		0.518688
C 1.0  		0.8802390054333032 		0.42828578840398623  0.22314285714285714 		Uiso   ? 		C 		0.518688
C 1.0  		0.8802390054333032 		0.42828578840398623  0.7231428571428572 		Uiso   ? 		C 		0.518688
C 1.0  		0.48016479195071127 		0.6284175648597835  0.22314285714285714 		Uiso   ? 		C 		0.523958
C 1.0  		0.48016479195071127 		0.6284175648597835  0.7231428571428572 		Uiso   ? 		C 		0.523958
C 1.0  		0.9802102239467004 		0.6284175648597835  0.22314285714285714 		Uiso   ? 		C 		0.523958
C 1.0  		0.9802102239467004 		0.6284175648597835  0.7231428571428572 		Uiso   ? 		C 		0.523958
C 1.0  		0.08027991789712202 		0.8283600018865781  0.22314285714285714 		Uiso   ? 		C 		0.519349
C 1.0  		0.08027991789712202 		0.8283600018865781  0.7231428571428572 		Uiso   ? 		C 		0.519349
C 1.0  		0.5803253498931112 		0.8283600018865781  0.22314285714285714 		Uiso   ? 		C 		0.519349
C 1.0  		0.5803253498931112 		0.8283600018865781  0.7231428571428572 		Uiso   ? 		C 		0.519349
C 1.0  		0.14692739690605364 		0.0032187702930449895  0.22314285714285714 		Uiso   ? 		C 		0.485638
C 1.0  		0.14692739690605364 		0.0032187702930449895  0.7231428571428572 		Uiso   ? 		C 		0.485638
C 1.0  		0.6469728289020428 		0.0032187702930449895  0.22314285714285714 		Uiso   ? 		C 		0.485638
C 1.0  		0.6469728289020428 		0.0032187702930449895  0.7231428571428572 		Uiso   ? 		C 		0.485638
C 1.0  		0.24689861541945093 		0.20335054674884226  0.22314285714285714 		Uiso   ? 		C 		0.487295
C 1.0  		0.24689861541945093 		0.20335054674884226  0.7231428571428572 		Uiso   ? 		C 		0.487295
C 1.0  		0.7469440474154401 		0.20335054674884226  0.22314285714285714 		Uiso   ? 		C 		0.487295
C 1.0  		0.7469440474154401 		0.20335054674884226  0.7231428571428572 		Uiso   ? 		C 		0.487295
C 1.0  		0.3470591733618509 		0.4032929837756369  0.22314285714285714 		Uiso   ? 		C 		0.484126
C 1.0  		0.3470591733618509 		0.4032929837756369  0.7231428571428572 		Uiso   ? 		C 		0.484126
C 1.0  		0.8471046053578402 		0.4032929837756369  0.22314285714285714 		Uiso   ? 		C 		0.484126
C 1.0  		0.8471046053578402 		0.4032929837756369  0.7231428571428572 		Uiso   ? 		C 		0.484126
C 1.0  		0.4470303918752482 		0.6032354208024315  0.22314285714285714 		Uiso   ? 		C 		0.491371
C 1.0  		0.4470303918752482 		0.6032354208024315  0.7231428571428572 		Uiso   ? 		C 		0.491371
C 1.0  		0.9470758238712373 		0.6032354208024315  0.22314285714285714 		Uiso   ? 		C 		0.491371
C 1.0  		0.9470758238712373 		0.6032354208024315  0.7231428571428572 		Uiso   ? 		C 		0.491371
C 1.0  		0.04695617839265626 		0.8031778578292261  0.22314285714285714 		Uiso   ? 		C 		0.488663
C 1.0  		0.04695617839265626 		0.8031778578292261  0.7231428571428572 		Uiso   ? 		C 		0.488663
C 1.0  		0.5470016103886455 		0.8031778578292261  0.22314285714285714 		Uiso   ? 		C 		0.488663
C 1.0  		0.5470016103886455 		0.8031778578292261  0.7231428571428572 		Uiso   ? 		C 		0.488663
C 1.0  		0.2582589811596097 		0.11303563911457991  0.22314285714285714 		Uiso   ? 		C 		0.518108
C 1.0  		0.2582589811596097 		0.11303563911457991  0.7231428571428572 		Uiso   ? 		C 		0.518108
C 1.0  		0.7583044131555989 		0.11303563911457991  0.22314285714285714 		Uiso   ? 		C 		0.518108
C 1.0  		0.7583044131555989 		0.11303563911457991  0.7231428571428572 		Uiso   ? 		C 		0.518108
C 1.0  		0.358230199673007 		0.3129780761413745  0.22314285714285714 		Uiso   ? 		C 		0.518480
C 1.0  		0.358230199673007 		0.3129780761413745  0.7231428571428572 		Uiso   ? 		C 		0.518480
C 1.0  		0.8582756316689963 		0.3129780761413745  0.22314285714285714 		Uiso   ? 		C 		0.518480
C 1.0  		0.8582756316689963 		0.3129780761413745  0.7231428571428572 		Uiso   ? 		C 		0.518480
C 1.0  		0.4583907576154069 		0.5131098525971718  0.22314285714285714 		Uiso   ? 		C 		0.525412
C 1.0  		0.4583907576154069 		0.5131098525971718  0.7231428571428572 		Uiso   ? 		C 		0.525412
C 1.0  		0.9584361896113962 		0.5131098525971718  0.22314285714285714 		Uiso   ? 		C 		0.525412
C 1.0  		0.9584361896113962 		0.5131098525971718  0.7231428571428572 		Uiso   ? 		C 		0.525412
C 1.0  		0.058316544132815056 		0.7130522896239664  0.22314285714285714 		Uiso   ? 		C 		0.519629
C 1.0  		0.058316544132815056 		0.7130522896239664  0.7231428571428572 		Uiso   ? 		C 		0.519629
C 1.0  		0.5583619761288042 		0.7130522896239664  0.22314285714285714 		Uiso   ? 		C 		0.519629
C 1.0  		0.5583619761288042 		0.7130522896239664  0.7231428571428572 		Uiso   ? 		C 		0.519629
C 1.0  		0.15828776264621236 		0.9129947266507611  0.22314285714285714 		Uiso   ? 		C 		0.519590
C 1.0  		0.15828776264621236 		0.9129947266507611  0.7231428571428572 		Uiso   ? 		C 		0.519590
C 1.0  		0.6583331946422015 		0.9129947266507611  0.22314285714285714 		Uiso   ? 		C 		0.519590
C 1.0  		0.6583331946422015 		0.9129947266507611  0.7231428571428572 		Uiso   ? 		C 		0.519590
C 1.0  		0.3968554431895469 		0.0032187702930449895  0.22314285714285714 		Uiso   ? 		C 		0.485074
C 1.0  		0.3968554431895469 		0.0032187702930449895  0.7231428571428572 		Uiso   ? 		C 		0.485074
C 1.0  		0.8969008751855361 		0.0032187702930449895  0.22314285714285714 		Uiso   ? 		C 		0.485074
C 1.0  		0.8969008751855361 		0.0032187702930449895  0.7231428571428572 		Uiso   ? 		C 		0.485074
C 1.0  		0.4968266617029442 		0.2031612073198396  0.22314285714285714 		Uiso   ? 		C 		0.485621
C 1.0  		0.4968266617029442 		0.2031612073198396  0.7231428571428572 		Uiso   ? 		C 		0.485621
C 1.0  		0.9968720936989334 		0.2031612073198396  0.22314285714285714 		Uiso   ? 		C 		0.485621
C 1.0  		0.9968720936989334 		0.2031612073198396  0.7231428571428572 		Uiso   ? 		C 		0.485621
C 1.0  		0.09694178764935495 		0.40310364434663426  0.22314285714285714 		Uiso   ? 		C 		0.490727
C 1.0  		0.09694178764935495 		0.40310364434663426  0.7231428571428572 		Uiso   ? 		C 		0.490727
C 1.0  		0.5969872196453442 		0.40310364434663426  0.22314285714285714 		Uiso   ? 		C 		0.490727
C 1.0  		0.5969872196453442 		0.40310364434663426  0.7231428571428572 		Uiso   ? 		C 		0.490727
C 1.0  		0.19691300616275226 		0.6032354208024315  0.22314285714285714 		Uiso   ? 		C 		0.485260
C 1.0  		0.19691300616275226 		0.6032354208024315  0.7231428571428572 		Uiso   ? 		C 		0.485260
C 1.0  		0.6969584381587415 		0.6032354208024315  0.22314285714285714 		Uiso   ? 		C 		0.485260
C 1.0  		0.6969584381587415 		0.6032354208024315  0.7231428571428572 		Uiso   ? 		C 		0.485260
C 1.0  		0.29688422467614956 		0.8031778578292261  0.22314285714285714 		Uiso   ? 		C 		0.487207
C 1.0  		0.29688422467614956 		0.8031778578292261  0.7231428571428572 		Uiso   ? 		C 		0.487207
C 1.0  		0.7969296566721388 		0.8031778578292261  0.22314285714285714 		Uiso   ? 		C 		0.487207
C 1.0  		0.7969296566721388 		0.8031778578292261  0.7231428571428572 		Uiso   ? 		C 		0.487207
C 1.0  		0.34365106363980324 		0.06494342414790773  0.22314285714285714 		Uiso   ? 		C 		0.552195
C 1.0  		0.34365106363980324 		0.06494342414790773  0.7231428571428572 		Uiso   ? 		C 		0.552195
C 1.0  		0.8436964956357925 		0.06494342414790773  0.22314285714285714 		Uiso   ? 		C 		0.552195
C 1.0  		0.8436964956357925 		0.06494342414790773  0.7231428571428572 		Uiso   ? 		C 		0.552195
C 1.0  		0.44362228215320054 		0.26488586117470236  0.22314285714285714 		Uiso   ? 		C 		0.554640
C 1.0  		0.44362228215320054 		0.26488586117470236  0.7231428571428572 		Uiso   ? 		C 		0.554640
C 1.0  		0.9436677141491898 		0.26488586117470236  0.22314285714285714 		Uiso   ? 		C 		0.554640
C 1.0  		0.9436677141491898 		0.26488586117470236  0.7231428571428572 		Uiso   ? 		C 		0.554640
C 1.0  		0.043548068670608654 		0.4650176376304996  0.22314285714285714 		Uiso   ? 		C 		0.554578
C 1.0  		0.043548068670608654 		0.4650176376304996  0.7231428571428572 		Uiso   ? 		C 		0.554578
C 1.0  		0.5435935006665978 		0.4650176376304996  0.22314285714285714 		Uiso   ? 		C 		0.554578
C 1.0  		0.5435935006665978 		0.4650176376304996  0.7231428571428572 		Uiso   ? 		C 		0.554578
C 1.0  		0.14351928718400597 		0.6649600746572942  0.22314285714285714 		Uiso   ? 		C 		0.553607
C 1.0  		0.14351928718400597 		0.6649600746572942  0.7231428571428572 		Uiso   ? 		C 		0.553607
C 1.0  		0.6435647191799952 		0.6649600746572942  0.22314285714285714 		Uiso   ? 		C 		0.553607
C 1.0  		0.6435647191799952 		0.6649600746572942  0.7231428571428572 		Uiso   ? 		C 		0.553607
C 1.0  		0.24349050569740324 		0.8649025116840888  0.22314285714285714 		Uiso   ? 		C 		0.553409
C 1.0  		0.24349050569740324 		0.8649025116840888  0.7231428571428572 		Uiso   ? 		C 		0.553409
C 1.0  		0.7435359376933925 		0.8649025116840888  0.22314285714285714 		Uiso   ? 		C 		0.553409
C 1.0  		0.7435359376933925 		0.8649025116840888  0.7231428571428572 		Uiso   ? 		C 		0.553409
C 1.0  		0.4606628307634387 		0.18100849412652997  0.22314285714285714 		Uiso   ? 		C 		0.470771
C 1.0  		0.4606628307634387 		0.18100849412652997  0.7231428571428572 		Uiso   ? 		C 		0.470771
C 1.0  		0.9607082627594279 		0.18100849412652997  0.22314285714285714 		Uiso   ? 		C 		0.470771
C 1.0  		0.9607082627594279 		0.18100849412652997  0.7231428571428572 		Uiso   ? 		C 		0.470771
C 1.0  		0.06077795670984948 		0.3809509311533246  0.22314285714285714 		Uiso   ? 		C 		0.476021
C 1.0  		0.06077795670984948 		0.3809509311533246  0.7231428571428572 		Uiso   ? 		C 		0.476021
C 1.0  		0.5608233887058387 		0.3809509311533246  0.22314285714285714 		Uiso   ? 		C 		0.476021
C 1.0  		0.5608233887058387 		0.3809509311533246  0.7231428571428572 		Uiso   ? 		C 		0.476021
C 1.0  		0.16074917522324678 		0.5810827076091218  0.22314285714285714 		Uiso   ? 		C 		0.472956
C 1.0  		0.16074917522324678 		0.5810827076091218  0.7231428571428572 		Uiso   ? 		C 		0.472956
C 1.0  		0.6607946072192361 		0.5810827076091218  0.22314285714285714 		Uiso   ? 		C 		0.472956
C 1.0  		0.6607946072192361 		0.5810827076091218  0.7231428571428572 		Uiso   ? 		C 		0.472956
C 1.0  		0.2607203937366441 		0.7810251446359165  0.22314285714285714 		Uiso   ? 		C 		0.471290
C 1.0  		0.2607203937366441 		0.7810251446359165  0.7231428571428572 		Uiso   ? 		C 		0.471290
C 1.0  		0.7607658257326333 		0.7810251446359165  0.22314285714285714 		Uiso   ? 		C 		0.471290
C 1.0  		0.7607658257326333 		0.7810251446359165  0.7231428571428572 		Uiso   ? 		C 		0.471290
C 1.0  		0.36069161225004137 		0.9809675816627111  0.22314285714285714 		Uiso   ? 		C 		0.471188
C 1.0  		0.36069161225004137 		0.9809675816627111  0.7231428571428572 		Uiso   ? 		C 		0.471188
C 1.0  		0.8607370442460306 		0.9809675816627111  0.22314285714285714 		Uiso   ? 		C 		0.471188
C 1.0  		0.8607370442460306 		0.9809675816627111  0.7231428571428572 		Uiso   ? 		C 		0.471188
C 1.0  		0.38738847173941454 		0.04847089382467749  0.22314285714285714 		Uiso   ? 		C 		0.521418
C 1.0  		0.38738847173941454 		0.04847089382467749  0.7231428571428572 		Uiso   ? 		C 		0.521418
C 1.0  		0.8874339037354039 		0.04847089382467749  0.22314285714285714 		Uiso   ? 		C 		0.521418
C 1.0  		0.8874339037354039 		0.04847089382467749  0.7231428571428572 		Uiso   ? 		C 		0.521418
C 1.0  		0.48735969025281184 		0.2484133308514721  0.22314285714285714 		Uiso   ? 		C 		0.519758
C 1.0  		0.48735969025281184 		0.2484133308514721  0.7231428571428572 		Uiso   ? 		C 		0.519758
C 1.0  		0.9874051222488011 		0.2484133308514721  0.22314285714285714 		Uiso   ? 		C 		0.519758
C 1.0  		0.9874051222488011 		0.2484133308514721  0.7231428571428572 		Uiso   ? 		C 		0.519758
C 1.0  		0.08728547677021997 		0.4483557678782667  0.22314285714285714 		Uiso   ? 		C 		0.519398
C 1.0  		0.08728547677021997 		0.4483557678782667  0.7231428571428572 		Uiso   ? 		C 		0.519398
C 1.0  		0.5873309087662092 		0.4483557678782667  0.22314285714285714 		Uiso   ? 		C 		0.519398
C 1.0  		0.5873309087662092 		0.4483557678782667  0.7231428571428572 		Uiso   ? 		C 		0.519398
C 1.0  		0.18744603471261992 		0.648487544334064  0.22314285714285714 		Uiso   ? 		C 		0.521457
C 1.0  		0.18744603471261992 		0.648487544334064  0.7231428571428572 		Uiso   ? 		C 		0.521457
C 1.0  		0.6874914667086092 		0.648487544334064  0.22314285714285714 		Uiso   ? 		C 		0.521457
C 1.0  		0.6874914667086092 		0.648487544334064  0.7231428571428572 		Uiso   ? 		C 		0.521457
C 1.0  		0.28741725322601724 		0.8484299813608586  0.22314285714285714 		Uiso   ? 		C 		0.520089
C 1.0  		0.28741725322601724 		0.8484299813608586  0.7231428571428572 		Uiso   ? 		C 		0.520089
C 1.0  		0.7874626852220065 		0.8484299813608586  0.22314285714285714 		Uiso   ? 		C 		0.520089
C 1.0  		0.7874626852220065 		0.8484299813608586  0.7231428571428572 		Uiso   ? 		C 		0.520089
C 1.0  		0.4665323530625208 		0.13518835230788953  0.22314285714285714 		Uiso   ? 		C 		0.513778
C 1.0  		0.4665323530625208 		0.13518835230788953  0.7231428571428572 		Uiso   ? 		C 		0.513778
C 1.0  		0.9665777850585101 		0.13518835230788953  0.22314285714285714 		Uiso   ? 		C 		0.513778
C 1.0  		0.9665777850585101 		0.13518835230788953  0.7231428571428572 		Uiso   ? 		C 		0.513778
C 1.0  		0.06645813957992888 		0.33513078933468415  0.22314285714285714 		Uiso   ? 		C 		0.521245
C 1.0  		0.06645813957992888 		0.33513078933468415  0.7231428571428572 		Uiso   ? 		C 		0.521245
C 1.0  		0.5665035715759181 		0.33513078933468415  0.22314285714285714 		Uiso   ? 		C 		0.521245
C 1.0  		0.5665035715759181 		0.33513078933468415  0.7231428571428572 		Uiso   ? 		C 		0.521245
C 1.0  		0.16642935809332618 		0.5350732263614788  0.22314285714285714 		Uiso   ? 		C 		0.518091
C 1.0  		0.16642935809332618 		0.5350732263614788  0.7231428571428572 		Uiso   ? 		C 		0.518091
C 1.0  		0.6664747900893154 		0.5350732263614788  0.22314285714285714 		Uiso   ? 		C 		0.518091
C 1.0  		0.6664747900893154 		0.5350732263614788  0.7231428571428572 		Uiso   ? 		C 		0.518091
C 1.0  		0.26640057660672345 		0.7352050028172761  0.22314285714285714 		Uiso   ? 		C 		0.513765
C 1.0  		0.26640057660672345 		0.7352050028172761  0.7231428571428572 		Uiso   ? 		C 		0.513765
C 1.0  		0.7664460086027127 		0.7352050028172761  0.22314285714285714 		Uiso   ? 		C 		0.513765
C 1.0  		0.7664460086027127 		0.7352050028172761  0.7231428571428572 		Uiso   ? 		C 		0.513765
C 1.0  		0.3663717951201208 		0.9351474398440707  0.22314285714285714 		Uiso   ? 		C 		0.517496
C 1.0  		0.3663717951201208 		0.9351474398440707  0.7231428571428572 		Uiso   ? 		C 		0.517496
C 1.0  		0.8664172271161098 		0.9351474398440707  0.22314285714285714 		Uiso   ? 		C 		0.517496
C 1.0  		0.8664172271161098 		0.9351474398440707  0.7231428571428572 		Uiso   ? 		C 		0.517496
C 1.0  		0.25996303602063353 		0.06778351558294742  0.22314285714285714 		Uiso   ? 		C 		0.493361
C 1.0  		0.25996303602063353 		0.06778351558294742  0.7231428571428572 		Uiso   ? 		C 		0.493361
C 1.0  		0.7600084680166228 		0.06778351558294742  0.22314285714285714 		Uiso   ? 		C 		0.493361
C 1.0  		0.7600084680166228 		0.06778351558294742  0.7231428571428572 		Uiso   ? 		C 		0.493361
C 1.0  		0.35993425453403083 		0.267725952609742  0.22314285714285714 		Uiso   ? 		C 		0.493545
C 1.0  		0.35993425453403083 		0.267725952609742  0.7231428571428572 		Uiso   ? 		C 		0.493545
C 1.0  		0.85997968653002 		0.267725952609742  0.22314285714285714 		Uiso   ? 		C 		0.493545
C 1.0  		0.85997968653002 		0.267725952609742  0.7231428571428572 		Uiso   ? 		C 		0.493545
C 1.0  		0.4600948124764308 		0.46785772906553935  0.22314285714285714 		Uiso   ? 		C 		0.496239
C 1.0  		0.4600948124764308 		0.46785772906553935  0.7231428571428572 		Uiso   ? 		C 		0.496239
C 1.0  		0.96014024447242 		0.46785772906553935  0.22314285714285714 		Uiso   ? 		C 		0.496239
C 1.0  		0.96014024447242 		0.46785772906553935  0.7231428571428572 		Uiso   ? 		C 		0.496239
C 1.0  		0.060020598993838874 		0.667800166092334  0.22314285714285714 		Uiso   ? 		C 		0.495298
C 1.0  		0.060020598993838874 		0.667800166092334  0.7231428571428572 		Uiso   ? 		C 		0.495298
C 1.0  		0.5600660309898281 		0.667800166092334  0.22314285714285714 		Uiso   ? 		C 		0.495298
C 1.0  		0.5600660309898281 		0.667800166092334  0.7231428571428572 		Uiso   ? 		C 		0.495298
C 1.0  		0.15999181750723618 		0.8677426031191285  0.22314285714285714 		Uiso   ? 		C 		0.496838
C 1.0  		0.15999181750723618 		0.8677426031191285  0.7231428571428572 		Uiso   ? 		C 		0.496838
C 1.0  		0.6600372495032255 		0.8677426031191285  0.22314285714285714 		Uiso   ? 		C 		0.496838
C 1.0  		0.6600372495032255 		0.8677426031191285  0.7231428571428572 		Uiso   ? 		C 		0.496838
C 1.0  		0.46634301363351816 		0.09353367792730734  0.22314285714285714 		Uiso   ? 		C 		0.484278
C 1.0  		0.46634301363351816 		0.09353367792730734  0.7231428571428572 		Uiso   ? 		C 		0.484278
C 1.0  		0.9663884456295073 		0.09353367792730734  0.22314285714285714 		Uiso   ? 		C 		0.484278
C 1.0  		0.9663884456295073 		0.09353367792730734  0.7231428571428572 		Uiso   ? 		C 		0.484278
C 1.0  		0.06626880015092623 		0.293476114954102  0.22314285714285714 		Uiso   ? 		C 		0.490302
C 1.0  		0.06626880015092623 		0.293476114954102  0.7231428571428572 		Uiso   ? 		C 		0.490302
C 1.0  		0.5663142321469155 		0.293476114954102  0.22314285714285714 		Uiso   ? 		C 		0.490302
C 1.0  		0.5663142321469155 		0.293476114954102  0.7231428571428572 		Uiso   ? 		C 		0.490302
C 1.0  		0.16624001866432353 		0.49341855198089657  0.22314285714285714 		Uiso   ? 		C 		0.489367
C 1.0  		0.16624001866432353 		0.49341855198089657  0.7231428571428572 		Uiso   ? 		C 		0.489367
C 1.0  		0.6662854506603128 		0.49341855198089657  0.22314285714285714 		Uiso   ? 		C 		0.489367
C 1.0  		0.6662854506603128 		0.49341855198089657  0.7231428571428572 		Uiso   ? 		C 		0.489367
C 1.0  		0.26640057660672345 		0.6933609890076912  0.22314285714285714 		Uiso   ? 		C 		0.487094
C 1.0  		0.26640057660672345 		0.6933609890076912  0.7231428571428572 		Uiso   ? 		C 		0.487094
C 1.0  		0.7664460086027127 		0.6933609890076912  0.22314285714285714 		Uiso   ? 		C 		0.487094
C 1.0  		0.7664460086027127 		0.6933609890076912  0.7231428571428572 		Uiso   ? 		C 		0.487094
C 1.0  		0.3663717951201208 		0.8934927654634885  0.22314285714285714 		Uiso   ? 		C 		0.488281
C 1.0  		0.3663717951201208 		0.8934927654634885  0.7231428571428572 		Uiso   ? 		C 		0.488281
C 1.0  		0.8664172271161099 		0.8934927654634885  0.22314285714285714 		Uiso   ? 		C 		0.488281
C 1.0  		0.8664172271161099 		0.8934927654634885  0.7231428571428572 		Uiso   ? 		C 		0.488281
C 1.0  		0.3500886042258932 		0.02272073148031757  0.22314285714285714 		Uiso   ? 		C 		0.497274
C 1.0  		0.3500886042258932 		0.02272073148031757  0.7231428571428572 		Uiso   ? 		C 		0.497274
C 1.0  		0.8501340362218824 		0.02272073148031757  0.22314285714285714 		Uiso   ? 		C 		0.497274
C 1.0  		0.8501340362218824 		0.02272073148031757  0.7231428571428572 		Uiso   ? 		C 		0.497274
C 1.0  		0.4500598227392905 		0.22266316850711218  0.22314285714285714 		Uiso   ? 		C 		0.495157
C 1.0  		0.4500598227392905 		0.22266316850711218  0.7231428571428572 		Uiso   ? 		C 		0.495157
C 1.0  		0.9501052547352797 		0.22266316850711218  0.22314285714285714 		Uiso   ? 		C 		0.495157
C 1.0  		0.9501052547352797 		0.22266316850711218  0.7231428571428572 		Uiso   ? 		C 		0.495157
C 1.0  		0.05017494868570128 		0.42260560553390686  0.22314285714285714 		Uiso   ? 		C 		0.494114
C 1.0  		0.05017494868570128 		0.42260560553390686  0.7231428571428572 		Uiso   ? 		C 		0.494114
C 1.0  		0.5502203806816905 		0.42260560553390686  0.22314285714285714 		Uiso   ? 		C 		0.494114
C 1.0  		0.5502203806816905 		0.42260560553390686  0.7231428571428572 		Uiso   ? 		C 		0.494114
C 1.0  		0.1501461671990986 		0.6227373819897041  0.22314285714285714 		Uiso   ? 		C 		0.497995
C 1.0  		0.1501461671990986 		0.6227373819897041  0.7231428571428572 		Uiso   ? 		C 		0.497995
C 1.0  		0.6501915991950878 		0.6227373819897041  0.22314285714285714 		Uiso   ? 		C 		0.497995
C 1.0  		0.6501915991950878 		0.6227373819897041  0.7231428571428572 		Uiso   ? 		C 		0.497995
C 1.0  		0.25011738571249587 		0.8226798190164987  0.22314285714285714 		Uiso   ? 		C 		0.495897
C 1.0  		0.25011738571249587 		0.8226798190164987  0.7231428571428572 		Uiso   ? 		C 		0.495897
C 1.0  		0.7501628177084851 		0.8226798190164987  0.22314285714285714 		Uiso   ? 		C 		0.495897
C 1.0  		0.7501628177084851 		0.8226798190164987  0.7231428571428572 		Uiso   ? 		C 		0.495897
C 1.0  		0.2203910953590804 		0.05131098525971718  0.22314285714285714 		Uiso   ? 		C 		0.468665
C 1.0  		0.2203910953590804 		0.05131098525971718  0.7231428571428572 		Uiso   ? 		C 		0.468665
C 1.0  		0.7204365273550697 		0.05131098525971718  0.22314285714285714 		Uiso   ? 		C 		0.468665
C 1.0  		0.7204365273550697 		0.05131098525971718  0.7231428571428572 		Uiso   ? 		C 		0.468665
C 1.0  		0.3203623138724777 		0.2512534222865118  0.22314285714285714 		Uiso   ? 		C 		0.470662
C 1.0  		0.3203623138724777 		0.2512534222865118  0.7231428571428572 		Uiso   ? 		C 		0.470662
C 1.0  		0.820407745868467 		0.2512534222865118  0.22314285714285714 		Uiso   ? 		C 		0.470662
C 1.0  		0.820407745868467 		0.2512534222865118  0.7231428571428572 		Uiso   ? 		C 		0.470662
C 1.0  		0.4203335323858751 		0.4511958593133064  0.22314285714285714 		Uiso   ? 		C 		0.472796
C 1.0  		0.4203335323858751 		0.4511958593133064  0.7231428571428572 		Uiso   ? 		C 		0.472796
C 1.0  		0.9203789643818642 		0.4511958593133064  0.22314285714285714 		Uiso   ? 		C 		0.472796
C 1.0  		0.9203789643818642 		0.4511958593133064  0.7231428571428572 		Uiso   ? 		C 		0.472796
C 1.0  		0.020259318903283127 		0.6513276357691037  0.22314285714285714 		Uiso   ? 		C 		0.477596
C 1.0  		0.020259318903283127 		0.6513276357691037  0.7231428571428572 		Uiso   ? 		C 		0.477596
C 1.0  		0.5203047508992724 		0.6513276357691037  0.22314285714285714 		Uiso   ? 		C 		0.477596
C 1.0  		0.5203047508992724 		0.6513276357691037  0.7231428571428572 		Uiso   ? 		C 		0.477596
C 1.0  		0.12041987684568307 		0.8512700727958984  0.22314285714285714 		Uiso   ? 		C 		0.470223
C 1.0  		0.12041987684568307 		0.8512700727958984  0.7231428571428572 		Uiso   ? 		C 		0.470223
C 1.0  		0.6204653088416724 		0.8512700727958984  0.22314285714285714 		Uiso   ? 		C 		0.470223
C 1.0  		0.6204653088416724 		0.8512700727958984  0.7231428571428572 		Uiso   ? 		C 		0.470223
C 1.0  		0.1374604254559213 		0.04847089382467749  0.22314285714285714 		Uiso   ? 		C 		0.521416
C 1.0  		0.1374604254559213 		0.04847089382467749  0.7231428571428572 		Uiso   ? 		C 		0.521416
C 1.0  		0.6375058574519105 		0.04847089382467749  0.22314285714285714 		Uiso   ? 		C 		0.521416
C 1.0  		0.6375058574519105 		0.04847089382467749  0.7231428571428572 		Uiso   ? 		C 		0.521416
C 1.0  		0.2374316439693186 		0.2484133308514721  0.22314285714285714 		Uiso   ? 		C 		0.515211
C 1.0  		0.2374316439693186 		0.2484133308514721  0.7231428571428572 		Uiso   ? 		C 		0.515211
C 1.0  		0.7374770759653079 		0.2484133308514721  0.22314285714285714 		Uiso   ? 		C 		0.515211
C 1.0  		0.7374770759653079 		0.2484133308514721  0.7231428571428572 		Uiso   ? 		C 		0.515211
C 1.0  		0.33740286248271595 		0.44854510730726943  0.22314285714285714 		Uiso   ? 		C 		0.520758
C 1.0  		0.33740286248271595 		0.44854510730726943  0.7231428571428572 		Uiso   ? 		C 		0.520758
C 1.0  		0.8374482944787052 		0.44854510730726943  0.22314285714285714 		Uiso   ? 		C 		0.520758
C 1.0  		0.8374482944787052 		0.44854510730726943  0.7231428571428572 		Uiso   ? 		C 		0.520758
C 1.0  		0.4373740809961132 		0.648487544334064  0.22314285714285714 		Uiso   ? 		C 		0.521429
C 1.0  		0.4373740809961132 		0.648487544334064  0.7231428571428572 		Uiso   ? 		C 		0.521429
C 1.0  		0.9374195129921024 		0.648487544334064  0.22314285714285714 		Uiso   ? 		C 		0.521429
C 1.0  		0.9374195129921024 		0.648487544334064  0.7231428571428572 		Uiso   ? 		C 		0.521429
C 1.0  		0.037489206942523945 		0.8484299813608586  0.22314285714285714 		Uiso   ? 		C 		0.519522
C 1.0  		0.037489206942523945 		0.8484299813608586  0.7231428571428572 		Uiso   ? 		C 		0.519522
C 1.0  		0.5375346389385132 		0.8484299813608586  0.22314285714285714 		Uiso   ? 		C 		0.519522
C 1.0  		0.5375346389385132 		0.8484299813608586  0.7231428571428572 		Uiso   ? 		C 		0.519522
C 1.0  		0.04771353610866689 		0.08785349505722795  0.22314285714285714 		Uiso   ? 		C 		0.549049
C 1.0  		0.04771353610866689 		0.08785349505722795  0.7231428571428572 		Uiso   ? 		C 		0.549049
C 1.0  		0.5477589681046561 		0.08785349505722795  0.22314285714285714 		Uiso   ? 		C 		0.549049
C 1.0  		0.5477589681046561 		0.08785349505722795  0.7231428571428572 		Uiso   ? 		C 		0.549049
C 1.0  		0.008141595447113788 		0.11303563911457991  0.22314285714285714 		Uiso   ? 		C 		0.522783
C 1.0  		0.008141595447113788 		0.11303563911457991  0.7231428571428572 		Uiso   ? 		C 		0.522783
C 1.0  		0.5081870274431031 		0.11303563911457991  0.22314285714285714 		Uiso   ? 		C 		0.522783
C 1.0  		0.5081870274431031 		0.11303563911457991  0.7231428571428572 		Uiso   ? 		C 		0.522783
C 1.0  		0.14768475462206418 		0.28779593208402254  0.22314285714285714 		Uiso   ? 		C 		0.556961
C 1.0  		0.14768475462206418 		0.28779593208402254  0.7231428571428572 		Uiso   ? 		C 		0.556961
C 1.0  		0.6477301866180534 		0.28779593208402254  0.22314285714285714 		Uiso   ? 		C 		0.556961
C 1.0  		0.6477301866180534 		0.28779593208402254  0.7231428571428572 		Uiso   ? 		C 		0.556961
C 1.0  		0.10830215338951373 		0.3129780761413745  0.22314285714285714 		Uiso   ? 		C 		0.522625
C 1.0  		0.10830215338951373 		0.3129780761413745  0.7231428571428572 		Uiso   ? 		C 		0.522625
C 1.0  		0.6083475853855029 		0.3129780761413745  0.22314285714285714 		Uiso   ? 		C 		0.522625
C 1.0  		0.6083475853855029 		0.3129780761413745  0.7231428571428572 		Uiso   ? 		C 		0.522625
C 1.0  		0.24784531256446413 		0.4879277085398198  0.22314285714285714 		Uiso   ? 		C 		0.550583
C 1.0  		0.24784531256446413 		0.4879277085398198  0.7231428571428572 		Uiso   ? 		C 		0.550583
C 1.0  		0.7478907445604533 		0.4879277085398198  0.22314285714285714 		Uiso   ? 		C 		0.550583
C 1.0  		0.7478907445604533 		0.4879277085398198  0.7231428571428572 		Uiso   ? 		C 		0.550583
C 1.0  		0.20827337190291106 		0.5129205131681692  0.22314285714285714 		Uiso   ? 		C 		0.518773
C 1.0  		0.20827337190291106 		0.5129205131681692  0.7231428571428572 		Uiso   ? 		C 		0.518773
C 1.0  		0.7083188038989003 		0.5129205131681692  0.22314285714285714 		Uiso   ? 		C 		0.518773
C 1.0  		0.7083188038989003 		0.5129205131681692  0.7231428571428572 		Uiso   ? 		C 		0.518773
C 1.0  		0.3478165310778614 		0.6878701455666144  0.22314285714285714 		Uiso   ? 		C 		0.550685
C 1.0  		0.3478165310778614 		0.6878701455666144  0.7231428571428572 		Uiso   ? 		C 		0.550685
C 1.0  		0.8478619630738506 		0.6878701455666144  0.22314285714285714 		Uiso   ? 		C 		0.550685
C 1.0  		0.8478619630738506 		0.6878701455666144  0.7231428571428572 		Uiso   ? 		C 		0.550685
C 1.0  		0.3082445904163083 		0.7128629501949638  0.22314285714285714 		Uiso   ? 		C 		0.517652
C 1.0  		0.3082445904163083 		0.7128629501949638  0.7231428571428572 		Uiso   ? 		C 		0.517652
C 1.0  		0.8082900224122976 		0.7128629501949638  0.22314285714285714 		Uiso   ? 		C 		0.517652
C 1.0  		0.8082900224122976 		0.7128629501949638  0.7231428571428572 		Uiso   ? 		C 		0.517652
C 1.0  		0.4477877495912588 		0.8878125825934091  0.22314285714285714 		Uiso   ? 		C 		0.554067
C 1.0  		0.4477877495912588 		0.8878125825934091  0.7231428571428572 		Uiso   ? 		C 		0.554067
C 1.0  		0.947833181587248 		0.8878125825934091  0.22314285714285714 		Uiso   ? 		C 		0.554067
C 1.0  		0.947833181587248 		0.8878125825934091  0.7231428571428572 		Uiso   ? 		C 		0.554067
C 1.0  		0.40821580892970566 		0.9129947266507611  0.22314285714285714 		Uiso   ? 		C 		0.521394
C 1.0  		0.40821580892970566 		0.9129947266507611  0.7231428571428572 		Uiso   ? 		C 		0.521394
C 1.0  		0.9082612409256947 		0.9129947266507611  0.22314285714285714 		Uiso   ? 		C 		0.521394
C 1.0  		0.9082612409256947 		0.9129947266507611  0.7231428571428572 		Uiso   ? 		C 		0.521394
C 1.0  		0.09353367792730734 		0.06494342414790773  0.22314285714285714 		Uiso   ? 		C 		0.555498
C 1.0  		0.09353367792730734 		0.06494342414790773  0.7231428571428572 		Uiso   ? 		C 		0.555498
C 1.0  		0.5935791099232965 		0.06494342414790773  0.22314285714285714 		Uiso   ? 		C 		0.555498
C 1.0  		0.5935791099232965 		0.06494342414790773  0.7231428571428572 		Uiso   ? 		C 		0.555498
C 1.0  		0.19369423586970724 		0.265075200603705  0.22314285714285714 		Uiso   ? 		C 		0.550247
C 1.0  		0.19369423586970724 		0.265075200603705  0.7231428571428572 		Uiso   ? 		C 		0.550247
C 1.0  		0.6937396678656965 		0.265075200603705  0.22314285714285714 		Uiso   ? 		C 		0.550247
C 1.0  		0.6937396678656965 		0.265075200603705  0.7231428571428572 		Uiso   ? 		C 		0.550247
C 1.0  		0.29366545438310454 		0.4650176376304996  0.22314285714285714 		Uiso   ? 		C 		0.552789
C 1.0  		0.29366545438310454 		0.4650176376304996  0.7231428571428572 		Uiso   ? 		C 		0.552789
C 1.0  		0.7937108863790938 		0.4650176376304996  0.22314285714285714 		Uiso   ? 		C 		0.552789
C 1.0  		0.7937108863790938 		0.4650176376304996  0.7231428571428572 		Uiso   ? 		C 		0.552789
C 1.0  		0.3936366728965019 		0.6649600746572942  0.22314285714285714 		Uiso   ? 		C 		0.557572
C 1.0  		0.3936366728965019 		0.6649600746572942  0.7231428571428572 		Uiso   ? 		C 		0.557572
C 1.0  		0.8936821048924911 		0.6649600746572942  0.22314285714285714 		Uiso   ? 		C 		0.557572
C 1.0  		0.8936821048924911 		0.6649600746572942  0.7231428571428572 		Uiso   ? 		C 		0.557572
C 1.0  		0.4936078914098992 		0.8650918511130915  0.22314285714285714 		Uiso   ? 		C 		0.555101
C 1.0  		0.4936078914098992 		0.8650918511130915  0.7231428571428572 		Uiso   ? 		C 		0.555101
C 1.0  		0.9936533234058884 		0.8650918511130915  0.22314285714285714 		Uiso   ? 		C 		0.555101
C 1.0  		0.9936533234058884 		0.8650918511130915  0.7231428571428572 		Uiso   ? 		C 		0.555101
C 1.0  		0.10016055794239996 		0.02272073148031757  0.22314285714285714 		Uiso   ? 		C 		0.498288
C 1.0  		0.10016055794239996 		0.02272073148031757  0.7231428571428572 		Uiso   ? 		C 		0.498288
C 1.0  		0.6002059899383891 		0.02272073148031757  0.22314285714285714 		Uiso   ? 		C 		0.498288
C 1.0  		0.6002059899383891 		0.02272073148031757  0.7231428571428572 		Uiso   ? 		C 		0.498288
C 1.0  		0.20013177645579724 		0.22285250793611486  0.22314285714285714 		Uiso   ? 		C 		0.494436
C 1.0  		0.20013177645579724 		0.22285250793611486  0.7231428571428572 		Uiso   ? 		C 		0.494436
C 1.0  		0.7001772084517864 		0.22285250793611486  0.22314285714285714 		Uiso   ? 		C 		0.494436
C 1.0  		0.7001772084517864 		0.22285250793611486  0.7231428571428572 		Uiso   ? 		C 		0.494436
C 1.0  		0.30029233439819725 		0.4227949449629095  0.22314285714285714 		Uiso   ? 		C 		0.493467
C 1.0  		0.30029233439819725 		0.4227949449629095  0.7231428571428572 		Uiso   ? 		C 		0.493467
C 1.0  		0.8003377663941865 		0.4227949449629095  0.22314285714285714 		Uiso   ? 		C 		0.493467
C 1.0  		0.8003377663941865 		0.4227949449629095  0.7231428571428572 		Uiso   ? 		C 		0.493467
C 1.0  		0.40026355291159443 		0.6227373819897041  0.22314285714285714 		Uiso   ? 		C 		0.497282
C 1.0  		0.40026355291159443 		0.6227373819897041  0.7231428571428572 		Uiso   ? 		C 		0.497282
C 1.0  		0.9003089849075837 		0.6227373819897041  0.22314285714285714 		Uiso   ? 		C 		0.497282
C 1.0  		0.9003089849075837 		0.6227373819897041  0.7231428571428572 		Uiso   ? 		C 		0.497282
C 1.0  		0.00018933942900259607 		0.8226798190164987  0.22314285714285714 		Uiso   ? 		C 		0.497434
C 1.0  		0.00018933942900259607 		0.8226798190164987  0.7231428571428572 		Uiso   ? 		C 		0.497434
C 1.0  		0.5002347714249918 		0.8226798190164987  0.22314285714285714 		Uiso   ? 		C 		0.497434
C 1.0  		0.5002347714249918 		0.8226798190164987  0.7231428571428572 		Uiso   ? 		C 		0.497434
C 1.0  		0.21641496735002486 		0.09353367792730734  0.22314285714285714 		Uiso   ? 		C 		0.485568
C 1.0  		0.21641496735002486 		0.09353367792730734  0.7231428571428572 		Uiso   ? 		C 		0.485568
C 1.0  		0.716460399346014 		0.09353367792730734  0.22314285714285714 		Uiso   ? 		C 		0.485568
C 1.0  		0.716460399346014 		0.09353367792730734  0.7231428571428572 		Uiso   ? 		C 		0.485568
C 1.0  		0.31638618586342215 		0.2936654543831046  0.22314285714285714 		Uiso   ? 		C 		0.482768
C 1.0  		0.31638618586342215 		0.2936654543831046  0.7231428571428572 		Uiso   ? 		C 		0.482768
C 1.0  		0.8164316178594114 		0.2936654543831046  0.22314285714285714 		Uiso   ? 		C 		0.482768
C 1.0  		0.8164316178594114 		0.2936654543831046  0.7231428571428572 		Uiso   ? 		C 		0.482768
C 1.0  		0.4163574043768194 		0.49360789140989925  0.22314285714285714 		Uiso   ? 		C 		0.486101
C 1.0  		0.4163574043768194 		0.49360789140989925  0.7231428571428572 		Uiso   ? 		C 		0.486101
C 1.0  		0.9164028363728086 		0.49360789140989925  0.22314285714285714 		Uiso   ? 		C 		0.486101
C 1.0  		0.9164028363728086 		0.49360789140989925  0.7231428571428572 		Uiso   ? 		C 		0.486101
C 1.0  		0.01628319089422755 		0.6935503284366938  0.22314285714285714 		Uiso   ? 		C 		0.489175
C 1.0  		0.01628319089422755 		0.6935503284366938  0.7231428571428572 		Uiso   ? 		C 		0.489175
C 1.0  		0.5163286228902167 		0.6935503284366938  0.22314285714285714 		Uiso   ? 		C 		0.489175
C 1.0  		0.5163286228902167 		0.6935503284366938  0.7231428571428572 		Uiso   ? 		C 		0.489175
C 1.0  		0.11644374883662749 		0.8934927654634885  0.22314285714285714 		Uiso   ? 		C 		0.487184
C 1.0  		0.11644374883662749 		0.8934927654634885  0.7231428571428572 		Uiso   ? 		C 		0.487184
C 1.0  		0.6164891808326167 		0.8934927654634885  0.22314285714285714 		Uiso   ? 		C 		0.487184
C 1.0  		0.6164891808326167 		0.8934927654634885  0.7231428571428572 		Uiso   ? 		C 		0.487184
C 1.0  		0.21073478447994545 		0.18100849412652997  0.22314285714285714 		Uiso   ? 		C 		0.468782
C 1.0  		0.21073478447994545 		0.18100849412652997  0.7231428571428572 		Uiso   ? 		C 		0.468782
C 1.0  		0.7107802164759347 		0.18100849412652997  0.22314285714285714 		Uiso   ? 		C 		0.468782
C 1.0  		0.7107802164759347 		0.18100849412652997  0.7231428571428572 		Uiso   ? 		C 		0.468782
C 1.0  		0.3107060029933428 		0.38114027058232725  0.22314285714285714 		Uiso   ? 		C 		0.470624
C 1.0  		0.3107060029933428 		0.38114027058232725  0.7231428571428572 		Uiso   ? 		C 		0.470624
C 1.0  		0.810751434989332 		0.38114027058232725  0.22314285714285714 		Uiso   ? 		C 		0.470624
C 1.0  		0.810751434989332 		0.38114027058232725  0.7231428571428572 		Uiso   ? 		C 		0.470624
C 1.0  		0.41067722150674 		0.5810827076091218  0.22314285714285714 		Uiso   ? 		C 		0.478513
C 1.0  		0.41067722150674 		0.5810827076091218  0.7231428571428572 		Uiso   ? 		C 		0.478513
C 1.0  		0.9107226535027292 		0.5810827076091218  0.22314285714285714 		Uiso   ? 		C 		0.478513
C 1.0  		0.9107226535027292 		0.5810827076091218  0.7231428571428572 		Uiso   ? 		C 		0.478513
C 1.0  		0.010792347453150797 		0.7810251446359165  0.22314285714285714 		Uiso   ? 		C 		0.475591
C 1.0  		0.010792347453150797 		0.7810251446359165  0.7231428571428572 		Uiso   ? 		C 		0.475591
C 1.0  		0.51083777944914 		0.7810251446359165  0.22314285714285714 		Uiso   ? 		C 		0.475591
C 1.0  		0.51083777944914 		0.7810251446359165  0.7231428571428572 		Uiso   ? 		C 		0.475591
C 1.0  		0.1107635659665481 		0.9809675816627111  0.22314285714285714 		Uiso   ? 		C 		0.472671
C 1.0  		0.1107635659665481 		0.9809675816627111  0.7231428571428572 		Uiso   ? 		C 		0.472671
C 1.0  		0.6108089979625373 		0.9809675816627111  0.22314285714285714 		Uiso   ? 		C 		0.472671
C 1.0  		0.6108089979625373 		0.9809675816627111  0.7231428571428572 		Uiso   ? 		C 		0.472671
C 1.0  		0.21660430677902748 		0.13518835230788953  0.22314285714285714 		Uiso   ? 		C 		0.514089
C 1.0  		0.21660430677902748 		0.13518835230788953  0.7231428571428572 		Uiso   ? 		C 		0.514089
C 1.0  		0.7166497387750167 		0.13518835230788953  0.22314285714285714 		Uiso   ? 		C 		0.514089
C 1.0  		0.7166497387750167 		0.13518835230788953  0.7231428571428572 		Uiso   ? 		C 		0.514089
C 1.0  		0.31657552529242483 		0.3353201287636868  0.22314285714285714 		Uiso   ? 		C 		0.513411
C 1.0  		0.31657552529242483 		0.3353201287636868  0.7231428571428572 		Uiso   ? 		C 		0.513411
C 1.0  		0.816620957288414 		0.3353201287636868  0.22314285714285714 		Uiso   ? 		C 		0.513411
C 1.0  		0.816620957288414 		0.3353201287636868  0.7231428571428572 		Uiso   ? 		C 		0.513411
C 1.0  		0.41654674380582213 		0.5352625657904815  0.22314285714285714 		Uiso   ? 		C 		0.523172
C 1.0  		0.41654674380582213 		0.5352625657904815  0.7231428571428572 		Uiso   ? 		C 		0.523172
C 1.0  		0.9165921758018114 		0.5352625657904815  0.22314285714285714 		Uiso   ? 		C 		0.523172
C 1.0  		0.9165921758018114 		0.5352625657904815  0.7231428571428572 		Uiso   ? 		C 		0.523172
C 1.0  		0.01647253032323019 		0.7352050028172761  0.22314285714285714 		Uiso   ? 		C 		0.517166
C 1.0  		0.01647253032323019 		0.7352050028172761  0.7231428571428572 		Uiso   ? 		C 		0.517166
C 1.0  		0.5165179623192194 		0.7352050028172761  0.22314285714285714 		Uiso   ? 		C 		0.517166
C 1.0  		0.5165179623192194 		0.7352050028172761  0.7231428571428572 		Uiso   ? 		C 		0.517166
C 1.0  		0.11663308826563014 		0.9353367792730733  0.22314285714285714 		Uiso   ? 		C 		0.516321
C 1.0  		0.11663308826563014 		0.9353367792730733  0.7231428571428572 		Uiso   ? 		C 		0.516321
C 1.0  		0.6166785202616193 		0.9353367792730733  0.22314285714285714 		Uiso   ? 		C 		0.516321
C 1.0  		0.6166785202616193 		0.9353367792730733  0.7231428571428572 		Uiso   ? 		C 		0.516321
C 1.0  		0.29783092182116283 		0.08785349505722795  0.3231428571428571 		Uiso   ? 		C 		0.552106
C 1.0  		0.29783092182116283 		0.08785349505722795  0.8231428571428571 		Uiso   ? 		C 		0.552106
C 1.0  		0.797876353817152 		0.08785349505722795  0.3231428571428571 		Uiso   ? 		C 		0.552106
C 1.0  		0.797876353817152 		0.08785349505722795  0.8231428571428571 		Uiso   ? 		C 		0.552106
C 1.0  		0.39780214033456013 		0.28779593208402254  0.3231428571428571 		Uiso   ? 		C 		0.550216
C 1.0  		0.39780214033456013 		0.28779593208402254  0.8231428571428571 		Uiso   ? 		C 		0.550216
C 1.0  		0.8978475723305493 		0.28779593208402254  0.3231428571428571 		Uiso   ? 		C 		0.550216
C 1.0  		0.8978475723305493 		0.28779593208402254  0.8231428571428571 		Uiso   ? 		C 		0.550216
C 1.0  		0.49777335884795737 		0.4879277085398198  0.3231428571428571 		Uiso   ? 		C 		0.550746
C 1.0  		0.49777335884795737 		0.4879277085398198  0.8231428571428571 		Uiso   ? 		C 		0.550746
C 1.0  		0.9978187908439465 		0.4879277085398198  0.3231428571428571 		Uiso   ? 		C 		0.550746
C 1.0  		0.9978187908439465 		0.4879277085398198  0.8231428571428571 		Uiso   ? 		C 		0.550746
C 1.0  		0.09788848479436817 		0.6878701455666144  0.3231428571428571 		Uiso   ? 		C 		0.550642
C 1.0  		0.09788848479436817 		0.6878701455666144  0.8231428571428571 		Uiso   ? 		C 		0.550642
C 1.0  		0.5979339167903573 		0.6878701455666144  0.3231428571428571 		Uiso   ? 		C 		0.550642
C 1.0  		0.5979339167903573 		0.6878701455666144  0.8231428571428571 		Uiso   ? 		C 		0.550642
C 1.0  		0.19785970330776545 		0.8878125825934091  0.3231428571428571 		Uiso   ? 		C 		0.556453
C 1.0  		0.19785970330776545 		0.8878125825934091  0.8231428571428571 		Uiso   ? 		C 		0.556453
C 1.0  		0.6979051353037548 		0.8878125825934091  0.3231428571428571 		Uiso   ? 		C 		0.556453
C 1.0  		0.6979051353037548 		0.8878125825934091  0.8231428571428571 		Uiso   ? 		C 		0.556453
C 1.0  		0.4703191416425737 		0.05112164583071454  0.3231428571428571 		Uiso   ? 		C 		0.471982
C 1.0  		0.4703191416425737 		0.05112164583071454  0.8231428571428571 		Uiso   ? 		C 		0.471982
C 1.0  		0.9703645736385629 		0.05112164583071454  0.3231428571428571 		Uiso   ? 		C 		0.471982
C 1.0  		0.9703645736385629 		0.05112164583071454  0.8231428571428571 		Uiso   ? 		C 		0.471982
C 1.0  		0.0702449281599818 		0.2512534222865118  0.3231428571428571 		Uiso   ? 		C 		0.477265
C 1.0  		0.0702449281599818 		0.2512534222865118  0.8231428571428571 		Uiso   ? 		C 		0.477265
C 1.0  		0.570290360155971 		0.2512534222865118  0.3231428571428571 		Uiso   ? 		C 		0.477265
C 1.0  		0.570290360155971 		0.2512534222865118  0.8231428571428571 		Uiso   ? 		C 		0.477265
C 1.0  		0.17021614667337912 		0.4511958593133064  0.3231428571428571 		Uiso   ? 		C 		0.472506
C 1.0  		0.17021614667337912 		0.4511958593133064  0.8231428571428571 		Uiso   ? 		C 		0.472506
C 1.0  		0.6702615786693683 		0.4511958593133064  0.3231428571428571 		Uiso   ? 		C 		0.472506
C 1.0  		0.6702615786693683 		0.4511958593133064  0.8231428571428571 		Uiso   ? 		C 		0.472506
C 1.0  		0.270376704615779 		0.651138296340101  0.3231428571428571 		Uiso   ? 		C 		0.470773
C 1.0  		0.270376704615779 		0.651138296340101  0.8231428571428571 		Uiso   ? 		C 		0.470773
C 1.0  		0.7704221366117683 		0.651138296340101  0.3231428571428571 		Uiso   ? 		C 		0.470773
C 1.0  		0.7704221366117683 		0.651138296340101  0.8231428571428571 		Uiso   ? 		C 		0.470773
C 1.0  		0.37034792312917636 		0.8510807333668957  0.3231428571428571 		Uiso   ? 		C 		0.472702
C 1.0  		0.37034792312917636 		0.8510807333668957  0.8231428571428571 		Uiso   ? 		C 		0.472702
C 1.0  		0.8703933551251657 		0.8510807333668957  0.3231428571428571 		Uiso   ? 		C 		0.472702
C 1.0  		0.8703933551251657 		0.8510807333668957  0.8231428571428571 		Uiso   ? 		C 		0.472702
C 1.0  		0.4301791826940126 		0.028211574921394315  0.3231428571428571 		Uiso   ? 		C 		0.517862
C 1.0  		0.4301791826940126 		0.028211574921394315  0.8231428571428571 		Uiso   ? 		C 		0.517862
C 1.0  		0.930224614690002 		0.028211574921394315  0.3231428571428571 		Uiso   ? 		C 		0.517862
C 1.0  		0.930224614690002 		0.028211574921394315  0.8231428571428571 		Uiso   ? 		C 		0.517862
C 1.0  		0.03010496921142077 		0.22834335137719158  0.3231428571428571 		Uiso   ? 		C 		0.515431
C 1.0  		0.03010496921142077 		0.22834335137719158  0.8231428571428571 		Uiso   ? 		C 		0.515431
C 1.0  		0.53015040120741 		0.22834335137719158  0.3231428571428571 		Uiso   ? 		C 		0.515431
C 1.0  		0.53015040120741 		0.22834335137719158  0.8231428571428571 		Uiso   ? 		C 		0.515431
C 1.0  		0.1302655271538207 		0.42828578840398623  0.3231428571428571 		Uiso   ? 		C 		0.517592
C 1.0  		0.1302655271538207 		0.42828578840398623  0.8231428571428571 		Uiso   ? 		C 		0.517592
C 1.0  		0.63031095914981 		0.42828578840398623  0.3231428571428571 		Uiso   ? 		C 		0.517592
C 1.0  		0.63031095914981 		0.42828578840398623  0.8231428571428571 		Uiso   ? 		C 		0.517592
C 1.0  		0.23023674566721802 		0.6282282254307808  0.3231428571428571 		Uiso   ? 		C 		0.518815
C 1.0  		0.23023674566721802 		0.6282282254307808  0.8231428571428571 		Uiso   ? 		C 		0.518815
C 1.0  		0.7302821776632072 		0.6282282254307808  0.3231428571428571 		Uiso   ? 		C 		0.518815
C 1.0  		0.7302821776632072 		0.6282282254307808  0.8231428571428571 		Uiso   ? 		C 		0.518815
C 1.0  		0.3302079641806153 		0.8283600018865781  0.3231428571428571 		Uiso   ? 		C 		0.522082
C 1.0  		0.3302079641806153 		0.8283600018865781  0.8231428571428571 		Uiso   ? 		C 		0.522082
C 1.0  		0.8302533961766045 		0.8283600018865781  0.3231428571428571 		Uiso   ? 		C 		0.522082
C 1.0  		0.8302533961766045 		0.8283600018865781  0.8231428571428571 		Uiso   ? 		C 		0.522082
C 1.0  		0.010034989737140256 		0.06778351558294742  0.3231428571428571 		Uiso   ? 		C 		0.493098
C 1.0  		0.010034989737140256 		0.06778351558294742  0.8231428571428571 		Uiso   ? 		C 		0.493098
C 1.0  		0.5100804217331295 		0.06778351558294742  0.3231428571428571 		Uiso   ? 		C 		0.493098
C 1.0  		0.5100804217331295 		0.06778351558294742  0.8231428571428571 		Uiso   ? 		C 		0.493098
C 1.0  		0.11000620825053754 		0.267725952609742  0.3231428571428571 		Uiso   ? 		C 		0.496198
C 1.0  		0.11000620825053754 		0.267725952609742  0.8231428571428571 		Uiso   ? 		C 		0.496198
C 1.0  		0.6100516402465268 		0.267725952609742  0.3231428571428571 		Uiso   ? 		C 		0.496198
C 1.0  		0.6100516402465268 		0.267725952609742  0.8231428571428571 		Uiso   ? 		C 		0.496198
C 1.0  		0.20997742676393485 		0.4676683896365367  0.3231428571428571 		Uiso   ? 		C 		0.494764
C 1.0  		0.20997742676393485 		0.4676683896365367  0.8231428571428571 		Uiso   ? 		C 		0.494764
C 1.0  		0.7100228587599241 		0.4676683896365367  0.3231428571428571 		Uiso   ? 		C 		0.494764
C 1.0  		0.7100228587599241 		0.4676683896365367  0.8231428571428571 		Uiso   ? 		C 		0.494764
C 1.0  		0.3099486452773321 		0.667800166092334  0.3231428571428571 		Uiso   ? 		C 		0.493781
C 1.0  		0.3099486452773321 		0.667800166092334  0.8231428571428571 		Uiso   ? 		C 		0.493781
C 1.0  		0.8099940772733213 		0.667800166092334  0.3231428571428571 		Uiso   ? 		C 		0.493781
C 1.0  		0.8099940772733213 		0.667800166092334  0.8231428571428571 		Uiso   ? 		C 		0.493781
C 1.0  		0.4099198637907295 		0.8677426031191285  0.3231428571428571 		Uiso   ? 		C 		0.495101
C 1.0  		0.4099198637907295 		0.8677426031191285  0.8231428571428571 		Uiso   ? 		C 		0.495101
C 1.0  		0.9099652957867187 		0.8677426031191285  0.3231428571428571 		Uiso   ? 		C 		0.495101
C 1.0  		0.9099652957867187 		0.8677426031191285  0.8231428571428571 		Uiso   ? 		C 		0.495101
C 1.0  		0.18025113641051937 		0.02840091435039696  0.3231428571428571 		Uiso   ? 		C 		0.522837
C 1.0  		0.18025113641051937 		0.02840091435039696  0.8231428571428571 		Uiso   ? 		C 		0.522837
C 1.0  		0.6802965684065085 		0.02840091435039696  0.3231428571428571 		Uiso   ? 		C 		0.522837
C 1.0  		0.6802965684065085 		0.02840091435039696  0.8231428571428571 		Uiso   ? 		C 		0.522837
C 1.0  		0.2802223549239167 		0.22834335137719158  0.3231428571428571 		Uiso   ? 		C 		0.516103
C 1.0  		0.2802223549239167 		0.22834335137719158  0.8231428571428571 		Uiso   ? 		C 		0.516103
C 1.0  		0.780267786919906 		0.22834335137719158  0.3231428571428571 		Uiso   ? 		C 		0.516103
C 1.0  		0.780267786919906 		0.22834335137719158  0.8231428571428571 		Uiso   ? 		C 		0.516103
C 1.0  		0.380193573437314 		0.42828578840398623  0.3231428571428571 		Uiso   ? 		C 		0.517763
C 1.0  		0.380193573437314 		0.42828578840398623  0.8231428571428571 		Uiso   ? 		C 		0.517763
C 1.0  		0.8802390054333032 		0.42828578840398623  0.3231428571428571 		Uiso   ? 		C 		0.517763
C 1.0  		0.8802390054333032 		0.42828578840398623  0.8231428571428571 		Uiso   ? 		C 		0.517763
C 1.0  		0.48016479195071127 		0.6284175648597835  0.3231428571428571 		Uiso   ? 		C 		0.523746
C 1.0  		0.48016479195071127 		0.6284175648597835  0.8231428571428571 		Uiso   ? 		C 		0.523746
C 1.0  		0.9802102239467004 		0.6284175648597835  0.3231428571428571 		Uiso   ? 		C 		0.523746
C 1.0  		0.9802102239467004 		0.6284175648597835  0.8231428571428571 		Uiso   ? 		C 		0.523746
C 1.0  		0.08027991789712202 		0.8283600018865781  0.3231428571428571 		Uiso   ? 		C 		0.519544
C 1.0  		0.08027991789712202 		0.8283600018865781  0.8231428571428571 		Uiso   ? 		C 		0.519544
C 1.0  		0.5803253498931112 		0.8283600018865781  0.3231428571428571 		Uiso   ? 		C 		0.519544
C 1.0  		0.5803253498931112 		0.8283600018865781  0.8231428571428571 		Uiso   ? 		C 		0.519544
C 1.0  		0.14692739690605364 		0.0032187702930449895  0.3231428571428571 		Uiso   ? 		C 		0.486289
C 1.0  		0.14692739690605364 		0.0032187702930449895  0.8231428571428571 		Uiso   ? 		C 		0.486289
C 1.0  		0.6469728289020428 		0.0032187702930449895  0.3231428571428571 		Uiso   ? 		C 		0.486289
C 1.0  		0.6469728289020428 		0.0032187702930449895  0.8231428571428571 		Uiso   ? 		C 		0.486289
C 1.0  		0.24689861541945093 		0.20335054674884226  0.3231428571428571 		Uiso   ? 		C 		0.486184
C 1.0  		0.24689861541945093 		0.20335054674884226  0.8231428571428571 		Uiso   ? 		C 		0.486184
C 1.0  		0.7469440474154401 		0.20335054674884226  0.3231428571428571 		Uiso   ? 		C 		0.486184
C 1.0  		0.7469440474154401 		0.20335054674884226  0.8231428571428571 		Uiso   ? 		C 		0.486184
C 1.0  		0.3470591733618509 		0.4032929837756369  0.3231428571428571 		Uiso   ? 		C 		0.484130
C 1.0  		0.3470591733618509 		0.4032929837756369  0.8231428571428571 		Uiso   ? 		C 		0.484130
C 1.0  		0.8471046053578402 		0.4032929837756369  0.3231428571428571 		Uiso   ? 		C 		0.484130
C 1.0  		0.8471046053578402 		0.4032929837756369  0.8231428571428571 		Uiso   ? 		C 		0.484130
C 1.0  		0.4470303918752482 		0.6032354208024315  0.3231428571428571 		Uiso   ? 		C 		0.491144
C 1.0  		0.4470303918752482 		0.6032354208024315  0.8231428571428571 		Uiso   ? 		C 		0.491144
C 1.0  		0.9470758238712373 		0.6032354208024315  0.3231428571428571 		Uiso   ? 		C 		0.491144
C 1.0  		0.9470758238712373 		0.6032354208024315  0.8231428571428571 		Uiso   ? 		C 		0.491144
C 1.0  		0.04695617839265626 		0.8031778578292261  0.3231428571428571 		Uiso   ? 		C 		0.487300
C 1.0  		0.04695617839265626 		0.8031778578292261  0.8231428571428571 		Uiso   ? 		C 		0.487300
C 1.0  		0.5470016103886455 		0.8031778578292261  0.3231428571428571 		Uiso   ? 		C 		0.487300
C 1.0  		0.5470016103886455 		0.8031778578292261  0.8231428571428571 		Uiso   ? 		C 		0.487300
C 1.0  		0.2582589811596097 		0.11303563911457991  0.3231428571428571 		Uiso   ? 		C 		0.517581
C 1.0  		0.2582589811596097 		0.11303563911457991  0.8231428571428571 		Uiso   ? 		C 		0.517581
C 1.0  		0.7583044131555989 		0.11303563911457991  0.3231428571428571 		Uiso   ? 		C 		0.517581
C 1.0  		0.7583044131555989 		0.11303563911457991  0.8231428571428571 		Uiso   ? 		C 		0.517581
C 1.0  		0.358230199673007 		0.3129780761413745  0.3231428571428571 		Uiso   ? 		C 		0.517050
C 1.0  		0.358230199673007 		0.3129780761413745  0.8231428571428571 		Uiso   ? 		C 		0.517050
C 1.0  		0.8582756316689963 		0.3129780761413745  0.3231428571428571 		Uiso   ? 		C 		0.517050
C 1.0  		0.8582756316689963 		0.3129780761413745  0.8231428571428571 		Uiso   ? 		C 		0.517050
C 1.0  		0.4583907576154069 		0.5131098525971718  0.3231428571428571 		Uiso   ? 		C 		0.525988
C 1.0  		0.4583907576154069 		0.5131098525971718  0.8231428571428571 		Uiso   ? 		C 		0.525988
C 1.0  		0.9584361896113962 		0.5131098525971718  0.3231428571428571 		Uiso   ? 		C 		0.525988
C 1.0  		0.9584361896113962 		0.5131098525971718  0.8231428571428571 		Uiso   ? 		C 		0.525988
C 1.0  		0.058316544132815056 		0.7130522896239664  0.3231428571428571 		Uiso   ? 		C 		0.519451
C 1.0  		0.058316544132815056 		0.7130522896239664  0.8231428571428571 		Uiso   ? 		C 		0.519451
C 1.0  		0.5583619761288042 		0.7130522896239664  0.3231428571428571 		Uiso   ? 		C 		0.519451
C 1.0  		0.5583619761288042 		0.7130522896239664  0.8231428571428571 		Uiso   ? 		C 		0.519451
C 1.0  		0.15828776264621236 		0.9129947266507611  0.3231428571428571 		Uiso   ? 		C 		0.519189
C 1.0  		0.15828776264621236 		0.9129947266507611  0.8231428571428571 		Uiso   ? 		C 		0.519189
C 1.0  		0.6583331946422015 		0.9129947266507611  0.3231428571428571 		Uiso   ? 		C 		0.519189
C 1.0  		0.6583331946422015 		0.9129947266507611  0.8231428571428571 		Uiso   ? 		C 		0.519189
C 1.0  		0.3968554431895469 		0.0032187702930449895  0.3231428571428571 		Uiso   ? 		C 		0.485057
C 1.0  		0.3968554431895469 		0.0032187702930449895  0.8231428571428571 		Uiso   ? 		C 		0.485057
C 1.0  		0.8969008751855361 		0.0032187702930449895  0.3231428571428571 		Uiso   ? 		C 		0.485057
C 1.0  		0.8969008751855361 		0.0032187702930449895  0.8231428571428571 		Uiso   ? 		C 		0.485057
C 1.0  		0.4968266617029442 		0.2031612073198396  0.3231428571428571 		Uiso   ? 		C 		0.484480
C 1.0  		0.4968266617029442 		0.2031612073198396  0.8231428571428571 		Uiso   ? 		C 		0.484480
C 1.0  		0.9968720936989334 		0.2031612073198396  0.3231428571428571 		Uiso   ? 		C 		0.484480
C 1.0  		0.9968720936989334 		0.2031612073198396  0.8231428571428571 		Uiso   ? 		C 		0.484480
C 1.0  		0.09694178764935495 		0.40310364434663426  0.3231428571428571 		Uiso   ? 		C 		0.490234
C 1.0  		0.09694178764935495 		0.40310364434663426  0.8231428571428571 		Uiso   ? 		C 		0.490234
C 1.0  		0.5969872196453442 		0.40310364434663426  0.3231428571428571 		Uiso   ? 		C 		0.490234
C 1.0  		0.5969872196453442 		0.40310364434663426  0.8231428571428571 		Uiso   ? 		C 		0.490234
C 1.0  		0.19691300616275226 		0.6032354208024315  0.3231428571428571 		Uiso   ? 		C 		0.486077
C 1.0  		0.19691300616275226 		0.6032354208024315  0.8231428571428571 		Uiso   ? 		C 		0.486077
C 1.0  		0.6969584381587415 		0.6032354208024315  0.3231428571428571 		Uiso   ? 		C 		0.486077
C 1.0  		0.6969584381587415 		0.6032354208024315  0.8231428571428571 		Uiso   ? 		C 		0.486077
C 1.0  		0.29688422467614956 		0.8031778578292261  0.3231428571428571 		Uiso   ? 		C 		0.487580
C 1.0  		0.29688422467614956 		0.8031778578292261  0.8231428571428571 		Uiso   ? 		C 		0.487580
C 1.0  		0.7969296566721388 		0.8031778578292261  0.3231428571428571 		Uiso   ? 		C 		0.487580
C 1.0  		0.7969296566721388 		0.8031778578292261  0.8231428571428571 		Uiso   ? 		C 		0.487580
C 1.0  		0.34365106363980324 		0.06494342414790773  0.3231428571428571 		Uiso   ? 		C 		0.551160
C 1.0  		0.34365106363980324 		0.06494342414790773  0.8231428571428571 		Uiso   ? 		C 		0.551160
C 1.0  		0.8436964956357925 		0.06494342414790773  0.3231428571428571 		Uiso   ? 		C 		0.551160
C 1.0  		0.8436964956357925 		0.06494342414790773  0.8231428571428571 		Uiso   ? 		C 		0.551160
C 1.0  		0.44362228215320054 		0.26488586117470236  0.3231428571428571 		Uiso   ? 		C 		0.554322
C 1.0  		0.44362228215320054 		0.26488586117470236  0.8231428571428571 		Uiso   ? 		C 		0.554322
C 1.0  		0.9436677141491898 		0.26488586117470236  0.3231428571428571 		Uiso   ? 		C 		0.554322
C 1.0  		0.9436677141491898 		0.26488586117470236  0.8231428571428571 		Uiso   ? 		C 		0.554322
C 1.0  		0.043548068670608654 		0.4650176376304996  0.3231428571428571 		Uiso   ? 		C 		0.555256
C 1.0  		0.043548068670608654 		0.4650176376304996  0.8231428571428571 		Uiso   ? 		C 		0.555256
C 1.0  		0.5435935006665978 		0.4650176376304996  0.3231428571428571 		Uiso   ? 		C 		0.555256
C 1.0  		0.5435935006665978 		0.4650176376304996  0.8231428571428571 		Uiso   ? 		C 		0.555256
C 1.0  		0.14351928718400597 		0.6649600746572942  0.3231428571428571 		Uiso   ? 		C 		0.553573
C 1.0  		0.14351928718400597 		0.6649600746572942  0.8231428571428571 		Uiso   ? 		C 		0.553573
C 1.0  		0.6435647191799952 		0.6649600746572942  0.3231428571428571 		Uiso   ? 		C 		0.553573
C 1.0  		0.6435647191799952 		0.6649600746572942  0.8231428571428571 		Uiso   ? 		C 		0.553573
C 1.0  		0.24349050569740324 		0.8649025116840888  0.3231428571428571 		Uiso   ? 		C 		0.553131
C 1.0  		0.24349050569740324 		0.8649025116840888  0.8231428571428571 		Uiso   ? 		C 		0.553131
C 1.0  		0.7435359376933925 		0.8649025116840888  0.3231428571428571 		Uiso   ? 		C 		0.553131
C 1.0  		0.7435359376933925 		0.8649025116840888  0.8231428571428571 		Uiso   ? 		C 		0.553131
C 1.0  		0.4606628307634387 		0.18100849412652997  0.3231428571428571 		Uiso   ? 		C 		0.470330
C 1.0  		0.4606628307634387 		0.18100849412652997  0.8231428571428571 		Uiso   ? 		C 		0.470330
C 1.0  		0.9607082627594279 		0.18100849412652997  0.3231428571428571 		Uiso   ? 		C 		0.470330
C 1.0  		0.9607082627594279 		0.18100849412652997  0.8231428571428571 		Uiso   ? 		C 		0.470330
C 1.0  		0.06077795670984948 		0.3809509311533246  0.3231428571428571 		Uiso   ? 		C 		0.476610
C 1.0  		0.06077795670984948 		0.3809509311533246  0.8231428571428571 		Uiso   ? 		C 		0.476610
C 1.0  		0.5608233887058387 		0.3809509311533246  0.3231428571428571 		Uiso   ? 		C 		0.476610
C 1.0  		0.5608233887058387 		0.3809509311533246  0.8231428571428571 		Uiso   ? 		C 		0.476610
C 1.0  		0.16074917522324678 		0.5810827076091218  0.3231428571428571 		Uiso   ? 		C 		0.473034
C 1.0  		0.16074917522324678 		0.5810827076091218  0.8231428571428571 		Uiso   ? 		C 		0.473034
C 1.0  		0.6607946072192361 		0.5810827076091218  0.3231428571428571 		Uiso   ? 		C 		0.473034
C 1.0  		0.6607946072192361 		0.5810827076091218  0.8231428571428571 		Uiso   ? 		C 		0.473034
C 1.0  		0.2607203937366441 		0.7810251446359165  0.3231428571428571 		Uiso   ? 		C 		0.472588
C 1.0  		0.2607203937366441 		0.7810251446359165  0.8231428571428571 		Uiso   ? 		C 		0.472588
C 1.0  		0.7607658257326333 		0.7810251446359165  0.3231428571428571 		Uiso   ? 		C 		0.472588
C 1.0  		0.7607658257326333 		0.7810251446359165  0.8231428571428571 		Uiso   ? 		C 		0.472588
C 1.0  		0.36069161225004137 		0.9809675816627111  0.3231428571428571 		Uiso   ? 		C 		0.470419
C 1.0  		0.36069161225004137 		0.9809675816627111  0.8231428571428571 		Uiso   ? 		C 		0.470419
C 1.0  		0.8607370442460306 		0.9809675816627111  0.3231428571428571 		Uiso   ? 		C 		0.470419
C 1.0  		0.8607370442460306 		0.9809675816627111  0.8231428571428571 		Uiso   ? 		C 		0.470419
C 1.0  		0.38738847173941454 		0.04847089382467749  0.3231428571428571 		Uiso   ? 		C 		0.521659
C 1.0  		0.38738847173941454 		0.04847089382467749  0.8231428571428571 		Uiso   ? 		C 		0.521659
C 1.0  		0.8874339037354039 		0.04847089382467749  0.3231428571428571 		Uiso   ? 		C 		0.521659
C 1.0  		0.8874339037354039 		0.04847089382467749  0.8231428571428571 		Uiso   ? 		C 		0.521659
C 1.0  		0.48735969025281184 		0.2484133308514721  0.3231428571428571 		Uiso   ? 		C 		0.519392
C 1.0  		0.48735969025281184 		0.2484133308514721  0.8231428571428571 		Uiso   ? 		C 		0.519392
C 1.0  		0.9874051222488011 		0.2484133308514721  0.3231428571428571 		Uiso   ? 		C 		0.519392
C 1.0  		0.9874051222488011 		0.2484133308514721  0.8231428571428571 		Uiso   ? 		C 		0.519392
C 1.0  		0.08728547677021997 		0.4483557678782667  0.3231428571428571 		Uiso   ? 		C 		0.519622
C 1.0  		0.08728547677021997 		0.4483557678782667  0.8231428571428571 		Uiso   ? 		C 		0.519622
C 1.0  		0.5873309087662092 		0.4483557678782667  0.3231428571428571 		Uiso   ? 		C 		0.519622
C 1.0  		0.5873309087662092 		0.4483557678782667  0.8231428571428571 		Uiso   ? 		C 		0.519622
C 1.0  		0.18744603471261992 		0.648487544334064  0.3231428571428571 		Uiso   ? 		C 		0.521118
C 1.0  		0.18744603471261992 		0.648487544334064  0.8231428571428571 		Uiso   ? 		C 		0.521118
C 1.0  		0.6874914667086092 		0.648487544334064  0.3231428571428571 		Uiso   ? 		C 		0.521118
C 1.0  		0.6874914667086092 		0.648487544334064  0.8231428571428571 		Uiso   ? 		C 		0.521118
C 1.0  		0.28741725322601724 		0.8484299813608586  0.3231428571428571 		Uiso   ? 		C 		0.520902
C 1.0  		0.28741725322601724 		0.8484299813608586  0.8231428571428571 		Uiso   ? 		C 		0.520902
C 1.0  		0.7874626852220065 		0.8484299813608586  0.3231428571428571 		Uiso   ? 		C 		0.520902
C 1.0  		0.7874626852220065 		0.8484299813608586  0.8231428571428571 		Uiso   ? 		C 		0.520902
C 1.0  		0.4665323530625208 		0.13518835230788953  0.3231428571428571 		Uiso   ? 		C 		0.513093
C 1.0  		0.4665323530625208 		0.13518835230788953  0.8231428571428571 		Uiso   ? 		C 		0.513093
C 1.0  		0.9665777850585101 		0.13518835230788953  0.3231428571428571 		Uiso   ? 		C 		0.513093
C 1.0  		0.9665777850585101 		0.13518835230788953  0.8231428571428571 		Uiso   ? 		C 		0.513093
C 1.0  		0.06645813957992888 		0.33513078933468415  0.3231428571428571 		Uiso   ? 		C 		0.520859
C 1.0  		0.06645813957992888 		0.33513078933468415  0.8231428571428571 		Uiso   ? 		C 		0.520859
C 1.0  		0.5665035715759181 		0.33513078933468415  0.3231428571428571 		Uiso   ? 		C 		0.520859
C 1.0  		0.5665035715759181 		0.33513078933468415  0.8231428571428571 		Uiso   ? 		C 		0.520859
C 1.0  		0.16642935809332618 		0.5350732263614788  0.3231428571428571 		Uiso   ? 		C 		0.519360
C 1.0  		0.16642935809332618 		0.5350732263614788  0.8231428571428571 		Uiso   ? 		C 		0.519360
C 1.0  		0.6664747900893154 		0.5350732263614788  0.3231428571428571 		Uiso   ? 		C 		0.519360
C 1.0  		0.6664747900893154 		0.5350732263614788  0.8231428571428571 		Uiso   ? 		C 		0.519360
C 1.0  		0.26640057660672345 		0.7352050028172761  0.3231428571428571 		Uiso   ? 		C 		0.514509
C 1.0  		0.26640057660672345 		0.7352050028172761  0.8231428571428571 		Uiso   ? 		C 		0.514509
C 1.0  		0.7664460086027127 		0.7352050028172761  0.3231428571428571 		Uiso   ? 		C 		0.514509
C 1.0  		0.7664460086027127 		0.7352050028172761  0.8231428571428571 		Uiso   ? 		C 		0.514509
C 1.0  		0.3663717951201208 		0.9351474398440707  0.3231428571428571 		Uiso   ? 		C 		0.518190
C 1.0  		0.3663717951201208 		0.9351474398440707  0.8231428571428571 		Uiso   ? 		C 		0.518190
C 1.0  		0.8664172271161098 		0.9351474398440707  0.3231428571428571 		Uiso   ? 		C 		0.518190
C 1.0  		0.8664172271161098 		0.9351474398440707  0.8231428571428571 		Uiso   ? 		C 		0.518190
C 1.0  		0.25996303602063353 		0.06778351558294742  0.3231428571428571 		Uiso   ? 		C 		0.493009
C 1.0  		0.25996303602063353 		0.06778351558294742  0.8231428571428571 		Uiso   ? 		C 		0.493009
C 1.0  		0.7600084680166228 		0.06778351558294742  0.3231428571428571 		Uiso   ? 		C 		0.493009
C 1.0  		0.7600084680166228 		0.06778351558294742  0.8231428571428571 		Uiso   ? 		C 		0.493009
C 1.0  		0.35993425453403083 		0.267725952609742  0.3231428571428571 		Uiso   ? 		C 		0.494359
C 1.0  		0.35993425453403083 		0.267725952609742  0.8231428571428571 		Uiso   ? 		C 		0.494359
C 1.0  		0.85997968653002 		0.267725952609742  0.3231428571428571 		Uiso   ? 		C 		0.494359
C 1.0  		0.85997968653002 		0.267725952609742  0.8231428571428571 		Uiso   ? 		C 		0.494359
C 1.0  		0.4600948124764308 		0.46785772906553935  0.3231428571428571 		Uiso   ? 		C 		0.496117
C 1.0  		0.4600948124764308 		0.46785772906553935  0.8231428571428571 		Uiso   ? 		C 		0.496117
C 1.0  		0.96014024447242 		0.46785772906553935  0.3231428571428571 		Uiso   ? 		C 		0.496117
C 1.0  		0.96014024447242 		0.46785772906553935  0.8231428571428571 		Uiso   ? 		C 		0.496117
C 1.0  		0.060020598993838874 		0.667800166092334  0.3231428571428571 		Uiso   ? 		C 		0.494573
C 1.0  		0.060020598993838874 		0.667800166092334  0.8231428571428571 		Uiso   ? 		C 		0.494573
C 1.0  		0.5600660309898281 		0.667800166092334  0.3231428571428571 		Uiso   ? 		C 		0.494573
C 1.0  		0.5600660309898281 		0.667800166092334  0.8231428571428571 		Uiso   ? 		C 		0.494573
C 1.0  		0.15999181750723618 		0.8677426031191285  0.3231428571428571 		Uiso   ? 		C 		0.496953
C 1.0  		0.15999181750723618 		0.8677426031191285  0.8231428571428571 		Uiso   ? 		C 		0.496953
C 1.0  		0.6600372495032255 		0.8677426031191285  0.3231428571428571 		Uiso   ? 		C 		0.496953
C 1.0  		0.6600372495032255 		0.8677426031191285  0.8231428571428571 		Uiso   ? 		C 		0.496953
C 1.0  		0.46634301363351816 		0.09353367792730734  0.3231428571428571 		Uiso   ? 		C 		0.483791
C 1.0  		0.46634301363351816 		0.09353367792730734  0.8231428571428571 		Uiso   ? 		C 		0.483791
C 1.0  		0.9663884456295073 		0.09353367792730734  0.3231428571428571 		Uiso   ? 		C 		0.483791
C 1.0  		0.9663884456295073 		0.09353367792730734  0.8231428571428571 		Uiso   ? 		C 		0.483791
C 1.0  		0.06626880015092623 		0.293476114954102  0.3231428571428571 		Uiso   ? 		C 		0.489860
C 1.0  		0.06626880015092623 		0.293476114954102  0.8231428571428571 		Uiso   ? 		C 		0.489860
C 1.0  		0.5663142321469155 		0.293476114954102  0.3231428571428571 		Uiso   ? 		C 		0.489860
C 1.0  		0.5663142321469155 		0.293476114954102  0.8231428571428571 		Uiso   ? 		C 		0.489860
C 1.0  		0.16624001866432353 		0.49341855198089657  0.3231428571428571 		Uiso   ? 		C 		0.490928
C 1.0  		0.16624001866432353 		0.49341855198089657  0.8231428571428571 		Uiso   ? 		C 		0.490928
C 1.0  		0.6662854506603128 		0.49341855198089657  0.3231428571428571 		Uiso   ? 		C 		0.490928
C 1.0  		0.6662854506603128 		0.49341855198089657  0.8231428571428571 		Uiso   ? 		C 		0.490928
C 1.0  		0.26640057660672345 		0.6933609890076912  0.3231428571428571 		Uiso   ? 		C 		0.488558
C 1.0  		0.26640057660672345 		0.6933609890076912  0.8231428571428571 		Uiso   ? 		C 		0.488558
C 1.0  		0.7664460086027127 		0.6933609890076912  0.3231428571428571 		Uiso   ? 		C 		0.488558
C 1.0  		0.7664460086027127 		0.6933609890076912  0.8231428571428571 		Uiso   ? 		C 		0.488558
C 1.0  		0.3663717951201208 		0.8934927654634885  0.3231428571428571 		Uiso   ? 		C 		0.487344
C 1.0  		0.3663717951201208 		0.8934927654634885  0.8231428571428571 		Uiso   ? 		C 		0.487344
C 1.0  		0.8664172271161099 		0.8934927654634885  0.3231428571428571 		Uiso   ? 		C 		0.487344
C 1.0  		0.8664172271161099 		0.8934927654634885  0.8231428571428571 		Uiso   ? 		C 		0.487344
C 1.0  		0.3500886042258932 		0.02272073148031757  0.3231428571428571 		Uiso   ? 		C 		0.495108
C 1.0  		0.3500886042258932 		0.02272073148031757  0.8231428571428571 		Uiso   ? 		C 		0.495108
C 1.0  		0.8501340362218824 		0.02272073148031757  0.3231428571428571 		Uiso   ? 		C 		0.495108
C 1.0  		0.8501340362218824 		0.02272073148031757  0.8231428571428571 		Uiso   ? 		C 		0.495108
C 1.0  		0.4500598227392905 		0.22266316850711218  0.3231428571428571 		Uiso   ? 		C 		0.494922
C 1.0  		0.4500598227392905 		0.22266316850711218  0.8231428571428571 		Uiso   ? 		C 		0.494922
C 1.0  		0.9501052547352797 		0.22266316850711218  0.3231428571428571 		Uiso   ? 		C 		0.494922
C 1.0  		0.9501052547352797 		0.22266316850711218  0.8231428571428571 		Uiso   ? 		C 		0.494922
C 1.0  		0.05017494868570128 		0.42260560553390686  0.3231428571428571 		Uiso   ? 		C 		0.494509
C 1.0  		0.05017494868570128 		0.42260560553390686  0.8231428571428571 		Uiso   ? 		C 		0.494509
C 1.0  		0.5502203806816905 		0.42260560553390686  0.3231428571428571 		Uiso   ? 		C 		0.494509
C 1.0  		0.5502203806816905 		0.42260560553390686  0.8231428571428571 		Uiso   ? 		C 		0.494509
C 1.0  		0.1501461671990986 		0.6227373819897041  0.3231428571428571 		Uiso   ? 		C 		0.497633
C 1.0  		0.1501461671990986 		0.6227373819897041  0.8231428571428571 		Uiso   ? 		C 		0.497633
C 1.0  		0.6501915991950878 		0.6227373819897041  0.3231428571428571 		Uiso   ? 		C 		0.497633
C 1.0  		0.6501915991950878 		0.6227373819897041  0.8231428571428571 		Uiso   ? 		C 		0.497633
C 1.0  		0.25011738571249587 		0.8226798190164987  0.3231428571428571 		Uiso   ? 		C 		0.495278
C 1.0  		0.25011738571249587 		0.8226798190164987  0.8231428571428571 		Uiso   ? 		C 		0.495278
C 1.0  		0.7501628177084851 		0.8226798190164987  0.3231428571428571 		Uiso   ? 		C 		0.495278
C 1.0  		0.7501628177084851 		0.8226798190164987  0.8231428571428571 		Uiso   ? 		C 		0.495278
C 1.0  		0.2203910953590804 		0.05131098525971718  0.3231428571428571 		Uiso   ? 		C 		0.469706
C 1.0  		0.2203910953590804 		0.05131098525971718  0.8231428571428571 		Uiso   ? 		C 		0.469706
C 1.0  		0.7204365273550697 		0.05131098525971718  0.3231428571428571 		Uiso   ? 		C 		0.469706
C 1.0  		0.7204365273550697 		0.05131098525971718  0.8231428571428571 		Uiso   ? 		C 		0.469706
C 1.0  		0.3203623138724777 		0.2512534222865118  0.3231428571428571 		Uiso   ? 		C 		0.470133
C 1.0  		0.3203623138724777 		0.2512534222865118  0.8231428571428571 		Uiso   ? 		C 		0.470133
C 1.0  		0.820407745868467 		0.2512534222865118  0.3231428571428571 		Uiso   ? 		C 		0.470133
C 1.0  		0.820407745868467 		0.2512534222865118  0.8231428571428571 		Uiso   ? 		C 		0.470133
C 1.0  		0.4203335323858751 		0.4511958593133064  0.3231428571428571 		Uiso   ? 		C 		0.473049
C 1.0  		0.4203335323858751 		0.4511958593133064  0.8231428571428571 		Uiso   ? 		C 		0.473049
C 1.0  		0.9203789643818642 		0.4511958593133064  0.3231428571428571 		Uiso   ? 		C 		0.473049
C 1.0  		0.9203789643818642 		0.4511958593133064  0.8231428571428571 		Uiso   ? 		C 		0.473049
C 1.0  		0.020259318903283127 		0.6513276357691037  0.3231428571428571 		Uiso   ? 		C 		0.476402
C 1.0  		0.020259318903283127 		0.6513276357691037  0.8231428571428571 		Uiso   ? 		C 		0.476402
C 1.0  		0.5203047508992724 		0.6513276357691037  0.3231428571428571 		Uiso   ? 		C 		0.476402
C 1.0  		0.5203047508992724 		0.6513276357691037  0.8231428571428571 		Uiso   ? 		C 		0.476402
C 1.0  		0.12041987684568307 		0.8512700727958984  0.3231428571428571 		Uiso   ? 		C 		0.470506
C 1.0  		0.12041987684568307 		0.8512700727958984  0.8231428571428571 		Uiso   ? 		C 		0.470506
C 1.0  		0.6204653088416724 		0.8512700727958984  0.3231428571428571 		Uiso   ? 		C 		0.470506
C 1.0  		0.6204653088416724 		0.8512700727958984  0.8231428571428571 		Uiso   ? 		C 		0.470506
C 1.0  		0.1374604254559213 		0.04847089382467749  0.3231428571428571 		Uiso   ? 		C 		0.520887
C 1.0  		0.1374604254559213 		0.04847089382467749  0.8231428571428571 		Uiso   ? 		C 		0.520887
C 1.0  		0.6375058574519105 		0.04847089382467749  0.3231428571428571 		Uiso   ? 		C 		0.520887
C 1.0  		0.6375058574519105 		0.04847089382467749  0.8231428571428571 		Uiso   ? 		C 		0.520887
C 1.0  		0.2374316439693186 		0.2484133308514721  0.3231428571428571 		Uiso   ? 		C 		0.514114
C 1.0  		0.2374316439693186 		0.2484133308514721  0.8231428571428571 		Uiso   ? 		C 		0.514114
C 1.0  		0.7374770759653079 		0.2484133308514721  0.3231428571428571 		Uiso   ? 		C 		0.514114
C 1.0  		0.7374770759653079 		0.2484133308514721  0.8231428571428571 		Uiso   ? 		C 		0.514114
C 1.0  		0.33740286248271595 		0.44854510730726943  0.3231428571428571 		Uiso   ? 		C 		0.520584
C 1.0  		0.33740286248271595 		0.44854510730726943  0.8231428571428571 		Uiso   ? 		C 		0.520584
C 1.0  		0.8374482944787052 		0.44854510730726943  0.3231428571428571 		Uiso   ? 		C 		0.520584
C 1.0  		0.8374482944787052 		0.44854510730726943  0.8231428571428571 		Uiso   ? 		C 		0.520584
C 1.0  		0.4373740809961132 		0.648487544334064  0.3231428571428571 		Uiso   ? 		C 		0.522019
C 1.0  		0.4373740809961132 		0.648487544334064  0.8231428571428571 		Uiso   ? 		C 		0.522019
C 1.0  		0.9374195129921024 		0.648487544334064  0.3231428571428571 		Uiso   ? 		C 		0.522019
C 1.0  		0.9374195129921024 		0.648487544334064  0.8231428571428571 		Uiso   ? 		C 		0.522019
C 1.0  		0.037489206942523945 		0.8484299813608586  0.3231428571428571 		Uiso   ? 		C 		0.519576
C 1.0  		0.037489206942523945 		0.8484299813608586  0.8231428571428571 		Uiso   ? 		C 		0.519576
C 1.0  		0.5375346389385132 		0.8484299813608586  0.3231428571428571 		Uiso   ? 		C 		0.519576
C 1.0  		0.5375346389385132 		0.8484299813608586  0.8231428571428571 		Uiso   ? 		C 		0.519576
C 1.0  		0.04771353610866689 		0.08785349505722795  0.3231428571428571 		Uiso   ? 		C 		0.549491
C 1.0  		0.04771353610866689 		0.08785349505722795  0.8231428571428571 		Uiso   ? 		C 		0.549491
C 1.0  		0.5477589681046561 		0.08785349505722795  0.3231428571428571 		Uiso   ? 		C 		0.549491
C 1.0  		0.5477589681046561 		0.08785349505722795  0.8231428571428571 		Uiso   ? 		C 		0.549491
C 1.0  		0.008141595447113788 		0.11303563911457991  0.3231428571428571 		Uiso   ? 		C 		0.522872
C 1.0  		0.008141595447113788 		0.11303563911457991  0.8231428571428571 		Uiso   ? 		C 		0.522872
C 1.0  		0.5081870274431031 		0.11303563911457991  0.3231428571428571 		Uiso   ? 		C 		0.522872
C 1.0  		0.5081870274431031 		0.11303563911457991  0.8231428571428571 		Uiso   ? 		C 		0.522872
C 1.0  		0.14768475462206418 		0.28779593208402254  0.3231428571428571 		Uiso   ? 		C 		0.556705
C 1.0  		0.14768475462206418 		0.28779593208402254  0.8231428571428571 		Uiso   ? 		C 		0.556705
C 1.0  		0.6477301866180534 		0.28779593208402254  0.3231428571428571 		Uiso   ? 		C 		0.556705
C 1.0  		0.6477301866180534 		0.28779593208402254  0.8231428571428571 		Uiso   ? 		C 		0.556705
C 1.0  		0.10830215338951373 		0.3129780761413745  0.3231428571428571 		Uiso   ? 		C 		0.521894
C 1.0  		0.10830215338951373 		0.3129780761413745  0.8231428571428571 		Uiso   ? 		C 		0.521894
C 1.0  		0.6083475853855029 		0.3129780761413745  0.3231428571428571 		Uiso   ? 		C 		0.521894
C 1.0  		0.6083475853855029 		0.3129780761413745  0.8231428571428571 		Uiso   ? 		C 		0.521894
C 1.0  		0.24784531256446413 		0.4879277085398198  0.3231428571428571 		Uiso   ? 		C 		0.550797
C 1.0  		0.24784531256446413 		0.4879277085398198  0.8231428571428571 		Uiso   ? 		C 		0.550797
C 1.0  		0.7478907445604533 		0.4879277085398198  0.3231428571428571 		Uiso   ? 		C 		0.550797
C 1.0  		0.7478907445604533 		0.4879277085398198  0.8231428571428571 		Uiso   ? 		C 		0.550797
C 1.0  		0.20827337190291106 		0.5129205131681692  0.3231428571428571 		Uiso   ? 		C 		0.519331
C 1.0  		0.20827337190291106 		0.5129205131681692  0.8231428571428571 		Uiso   ? 		C 		0.519331
C 1.0  		0.7083188038989003 		0.5129205131681692  0.3231428571428571 		Uiso   ? 		C 		0.519331
C 1.0  		0.7083188038989003 		0.5129205131681692  0.8231428571428571 		Uiso   ? 		C 		0.519331
C 1.0  		0.3478165310778614 		0.6878701455666144  0.3231428571428571 		Uiso   ? 		C 		0.550802
C 1.0  		0.3478165310778614 		0.6878701455666144  0.8231428571428571 		Uiso   ? 		C 		0.550802
C 1.0  		0.8478619630738506 		0.6878701455666144  0.3231428571428571 		Uiso   ? 		C 		0.550802
C 1.0  		0.8478619630738506 		0.6878701455666144  0.8231428571428571 		Uiso   ? 		C 		0.550802
C 1.0  		0.3082445904163083 		0.7128629501949638  0.3231428571428571 		Uiso   ? 		C 		0.518134
C 1.0  		0.3082445904163083 		0.7128629501949638  0.8231428571428571 		Uiso   ? 		C 		0.518134
C 1.0  		0.8082900224122976 		0.7128629501949638  0.3231428571428571 		Uiso   ? 		C 		0.518134
C 1.0  		0.8082900224122976 		0.7128629501949638  0.8231428571428571 		Uiso   ? 		C 		0.518134
C 1.0  		0.4477877495912588 		0.8878125825934091  0.3231428571428571 		Uiso   ? 		C 		0.553652
C 1.0  		0.4477877495912588 		0.8878125825934091  0.8231428571428571 		Uiso   ? 		C 		0.553652
C 1.0  		0.947833181587248 		0.8878125825934091  0.3231428571428571 		Uiso   ? 		C 		0.553652
C 1.0  		0.947833181587248 		0.8878125825934091  0.8231428571428571 		Uiso   ? 		C 		0.553652
C 1.0  		0.40821580892970566 		0.9129947266507611  0.3231428571428571 		Uiso   ? 		C 		0.521539
C 1.0  		0.40821580892970566 		0.9129947266507611  0.8231428571428571 		Uiso   ? 		C 		0.521539
C 1.0  		0.9082612409256947 		0.9129947266507611  0.3231428571428571 		Uiso   ? 		C 		0.521539
C 1.0  		0.9082612409256947 		0.9129947266507611  0.8231428571428571 		Uiso   ? 		C 		0.521539
C 1.0  		0.09353367792730734 		0.06494342414790773  0.3231428571428571 		Uiso   ? 		C 		0.555663
C 1.0  		0.09353367792730734 		0.06494342414790773  0.8231428571428571 		Uiso   ? 		C 		0.555663
C 1.0  		0.5935791099232965 		0.06494342414790773  0.3231428571428571 		Uiso   ? 		C 		0.555663
C 1.0  		0.5935791099232965 		0.06494342414790773  0.8231428571428571 		Uiso   ? 		C 		0.555663
C 1.0  		0.19369423586970724 		0.265075200603705  0.3231428571428571 		Uiso   ? 		C 		0.549304
C 1.0  		0.19369423586970724 		0.265075200603705  0.8231428571428571 		Uiso   ? 		C 		0.549304
C 1.0  		0.6937396678656965 		0.265075200603705  0.3231428571428571 		Uiso   ? 		C 		0.549304
C 1.0  		0.6937396678656965 		0.265075200603705  0.8231428571428571 		Uiso   ? 		C 		0.549304
C 1.0  		0.29366545438310454 		0.4650176376304996  0.3231428571428571 		Uiso   ? 		C 		0.552756
C 1.0  		0.29366545438310454 		0.4650176376304996  0.8231428571428571 		Uiso   ? 		C 		0.552756
C 1.0  		0.7937108863790938 		0.4650176376304996  0.3231428571428571 		Uiso   ? 		C 		0.552756
C 1.0  		0.7937108863790938 		0.4650176376304996  0.8231428571428571 		Uiso   ? 		C 		0.552756
C 1.0  		0.3936366728965019 		0.6649600746572942  0.3231428571428571 		Uiso   ? 		C 		0.557934
C 1.0  		0.3936366728965019 		0.6649600746572942  0.8231428571428571 		Uiso   ? 		C 		0.557934
C 1.0  		0.8936821048924911 		0.6649600746572942  0.3231428571428571 		Uiso   ? 		C 		0.557934
C 1.0  		0.8936821048924911 		0.6649600746572942  0.8231428571428571 		Uiso   ? 		C 		0.557934
C 1.0  		0.4936078914098992 		0.8650918511130915  0.3231428571428571 		Uiso   ? 		C 		0.554936
C 1.0  		0.4936078914098992 		0.8650918511130915  0.8231428571428571 		Uiso   ? 		C 		0.554936
C 1.0  		0.9936533234058884 		0.8650918511130915  0.3231428571428571 		Uiso   ? 		C 		0.554936
C 1.0  		0.9936533234058884 		0.8650918511130915  0.8231428571428571 		Uiso   ? 		C 		0.554936
C 1.0  		0.10016055794239996 		0.02272073148031757  0.3231428571428571 		Uiso   ? 		C 		0.497932
C 1.0  		0.10016055794239996 		0.02272073148031757  0.8231428571428571 		Uiso   ? 		C 		0.497932
C 1.0  		0.6002059899383891 		0.02272073148031757  0.3231428571428571 		Uiso   ? 		C 		0.497932
C 1.0  		0.6002059899383891 		0.02272073148031757  0.8231428571428571 		Uiso   ? 		C 		0.497932
C 1.0  		0.20013177645579724 		0.22285250793611486  0.3231428571428571 		Uiso   ? 		C 		0.494661
C 1.0  		0.20013177645579724 		0.22285250793611486  0.8231428571428571 		Uiso   ? 		C 		0.494661
C 1.0  		0.7001772084517864 		0.22285250793611486  0.3231428571428571 		Uiso   ? 		C 		0.494661
C 1.0  		0.7001772084517864 		0.22285250793611486  0.8231428571428571 		Uiso   ? 		C 		0.494661
C 1.0  		0.30029233439819725 		0.4227949449629095  0.3231428571428571 		Uiso   ? 		C 		0.493174
C 1.0  		0.30029233439819725 		0.4227949449629095  0.8231428571428571 		Uiso   ? 		C 		0.493174
C 1.0  		0.8003377663941865 		0.4227949449629095  0.3231428571428571 		Uiso   ? 		C 		0.493174
C 1.0  		0.8003377663941865 		0.4227949449629095  0.8231428571428571 		Uiso   ? 		C 		0.493174
C 1.0  		0.40026355291159443 		0.6227373819897041  0.3231428571428571 		Uiso   ? 		C 		0.497230
C 1.0  		0.40026355291159443 		0.6227373819897041  0.8231428571428571 		Uiso   ? 		C 		0.497230
C 1.0  		0.9003089849075837 		0.6227373819897041  0.3231428571428571 		Uiso   ? 		C 		0.497230
C 1.0  		0.9003089849075837 		0.6227373819897041  0.8231428571428571 		Uiso   ? 		C 		0.497230
C 1.0  		0.00018933942900259607 		0.8226798190164987  0.3231428571428571 		Uiso   ? 		C 		0.497357
C 1.0  		0.00018933942900259607 		0.8226798190164987  0.8231428571428571 		Uiso   ? 		C 		0.497357
C 1.0  		0.5002347714249918 		0.8226798190164987  0.3231428571428571 		Uiso   ? 		C 		0.497357
C 1.0  		0.5002347714249918 		0.8226798190164987  0.8231428571428571 		Uiso   ? 		C 		0.497357
C 1.0  		0.21641496735002486 		0.09353367792730734  0.3231428571428571 		Uiso   ? 		C 		0.485129
C 1.0  		0.21641496735002486 		0.09353367792730734  0.8231428571428571 		Uiso   ? 		C 		0.485129
C 1.0  		0.716460399346014 		0.09353367792730734  0.3231428571428571 		Uiso   ? 		C 		0.485129
C 1.0  		0.716460399346014 		0.09353367792730734  0.8231428571428571 		Uiso   ? 		C 		0.485129
C 1.0  		0.31638618586342215 		0.2936654543831046  0.3231428571428571 		Uiso   ? 		C 		0.482391
C 1.0  		0.31638618586342215 		0.2936654543831046  0.8231428571428571 		Uiso   ? 		C 		0.482391
C 1.0  		0.8164316178594114 		0.2936654543831046  0.3231428571428571 		Uiso   ? 		C 		0.482391
C 1.0  		0.8164316178594114 		0.2936654543831046  0.8231428571428571 		Uiso   ? 		C 		0.482391
C 1.0  		0.4163574043768194 		0.49360789140989925  0.3231428571428571 		Uiso   ? 		C 		0.486784
C 1.0  		0.4163574043768194 		0.49360789140989925  0.8231428571428571 		Uiso   ? 		C 		0.486784
C 1.0  		0.9164028363728086 		0.49360789140989925  0.3231428571428571 		Uiso   ? 		C 		0.486784
C 1.0  		0.9164028363728086 		0.49360789140989925  0.8231428571428571 		Uiso   ? 		C 		0.486784
C 1.0  		0.01628319089422755 		0.6935503284366938  0.3231428571428571 		Uiso   ? 		C 		0.488930
C 1.0  		0.01628319089422755 		0.6935503284366938  0.8231428571428571 		Uiso   ? 		C 		0.488930
C 1.0  		0.5163286228902167 		0.6935503284366938  0.3231428571428571 		Uiso   ? 		C 		0.488930
C 1.0  		0.5163286228902167 		0.6935503284366938  0.8231428571428571 		Uiso   ? 		C 		0.488930
C 1.0  		0.11644374883662749 		0.8934927654634885  0.3231428571428571 		Uiso   ? 		C 		0.486726
C 1.0  		0.11644374883662749 		0.8934927654634885  0.8231428571428571 		Uiso   ? 		C 		0.486726
C 1.0  		0.6164891808326167 		0.8934927654634885  0.3231428571428571 		Uiso   ? 		C 		0.486726
C 1.0  		0.6164891808326167 		0.8934927654634885  0.8231428571428571 		Uiso   ? 		C 		0.486726
C 1.0  		0.21073478447994545 		0.18100849412652997  0.3231428571428571 		Uiso   ? 		C 		0.468250
C 1.0  		0.21073478447994545 		0.18100849412652997  0.8231428571428571 		Uiso   ? 		C 		0.468250
C 1.0  		0.7107802164759347 		0.18100849412652997  0.3231428571428571 		Uiso   ? 		C 		0.468250
C 1.0  		0.7107802164759347 		0.18100849412652997  0.8231428571428571 		Uiso   ? 		C 		0.468250
C 1.0  		0.3107060029933428 		0.38114027058232725  0.3231428571428571 		Uiso   ? 		C 		0.470156
C 1.0  		0.3107060029933428 		0.38114027058232725  0.8231428571428571 		Uiso   ? 		C 		0.470156
C 1.0  		0.810751434989332 		0.38114027058232725  0.3231428571428571 		Uiso   ? 		C 		0.470156
C 1.0  		0.810751434989332 		0.38114027058232725  0.8231428571428571 		Uiso   ? 		C 		0.470156
C 1.0  		0.41067722150674 		0.5810827076091218  0.3231428571428571 		Uiso   ? 		C 		0.477847
C 1.0  		0.41067722150674 		0.5810827076091218  0.8231428571428571 		Uiso   ? 		C 		0.477847
C 1.0  		0.9107226535027292 		0.5810827076091218  0.3231428571428571 		Uiso   ? 		C 		0.477847
C 1.0  		0.9107226535027292 		0.5810827076091218  0.8231428571428571 		Uiso   ? 		C 		0.477847
C 1.0  		0.010792347453150797 		0.7810251446359165  0.3231428571428571 		Uiso   ? 		C 		0.473992
C 1.0  		0.010792347453150797 		0.7810251446359165  0.8231428571428571 		Uiso   ? 		C 		0.473992
C 1.0  		0.51083777944914 		0.7810251446359165  0.3231428571428571 		Uiso   ? 		C 		0.473992
C 1.0  		0.51083777944914 		0.7810251446359165  0.8231428571428571 		Uiso   ? 		C 		0.473992
C 1.0  		0.1107635659665481 		0.9809675816627111  0.3231428571428571 		Uiso   ? 		C 		0.472705
C 1.0  		0.1107635659665481 		0.9809675816627111  0.8231428571428571 		Uiso   ? 		C 		0.472705
C 1.0  		0.6108089979625373 		0.9809675816627111  0.3231428571428571 		Uiso   ? 		C 		0.472705
C 1.0  		0.6108089979625373 		0.9809675816627111  0.8231428571428571 		Uiso   ? 		C 		0.472705
C 1.0  		0.21660430677902748 		0.13518835230788953  0.3231428571428571 		Uiso   ? 		C 		0.513685
C 1.0  		0.21660430677902748 		0.13518835230788953  0.8231428571428571 		Uiso   ? 		C 		0.513685
C 1.0  		0.7166497387750167 		0.13518835230788953  0.3231428571428571 		Uiso   ? 		C 		0.513685
C 1.0  		0.7166497387750167 		0.13518835230788953  0.8231428571428571 		Uiso   ? 		C 		0.513685
C 1.0  		0.31657552529242483 		0.3353201287636868  0.3231428571428571 		Uiso   ? 		C 		0.511773
C 1.0  		0.31657552529242483 		0.3353201287636868  0.8231428571428571 		Uiso   ? 		C 		0.511773
C 1.0  		0.816620957288414 		0.3353201287636868  0.3231428571428571 		Uiso   ? 		C 		0.511773
C 1.0  		0.816620957288414 		0.3353201287636868  0.8231428571428571 		Uiso   ? 		C 		0.511773
C 1.0  		0.41654674380582213 		0.5352625657904815  0.3231428571428571 		Uiso   ? 		C 		0.523733
C 1.0  		0.41654674380582213 		0.5352625657904815  0.8231428571428571 		Uiso   ? 		C 		0.523733
C 1.0  		0.9165921758018114 		0.5352625657904815  0.3231428571428571 		Uiso   ? 		C 		0.523733
C 1.0  		0.9165921758018114 		0.5352625657904815  0.8231428571428571 		Uiso   ? 		C 		0.523733
C 1.0  		0.01647253032323019 		0.7352050028172761  0.3231428571428571 		Uiso   ? 		C 		0.516463
C 1.0  		0.01647253032323019 		0.7352050028172761  0.8231428571428571 		Uiso   ? 		C 		0.516463
C 1.0  		0.5165179623192194 		0.7352050028172761  0.3231428571428571 		Uiso   ? 		C 		0.516463
C 1.0  		0.5165179623192194 		0.7352050028172761  0.8231428571428571 		Uiso   ? 		C 		0.516463
C 1.0  		0.11663308826563014 		0.9353367792730733  0.3231428571428571 		Uiso   ? 		C 		0.515059
C 1.0  		0.11663308826563014 		0.9353367792730733  0.8231428571428571 		Uiso   ? 		C 		0.515059
C 1.0  		0.6166785202616193 		0.9353367792730733  0.3231428571428571 		Uiso   ? 		C 		0.515059
C 1.0  		0.6166785202616193 		0.9353367792730733  0.8231428571428571 		Uiso   ? 		C 		0.515059
